/*---------------------------------------------------------------------------*\
  =========                 |
  \\      /  F ield         | OpenFOAM: The Open Source CFD Toolbox
   \\    /   O peration     | Website:  https://openfoam.org
    \\  /    A nd           | Version:  7
     \\/     M anipulation  |
\*---------------------------------------------------------------------------*/
Build  : 7-49b2b3b8b082
Exec   : icoFoam
Date   : Feb 05 2023
Time   : 10:43:52
Host   : "c469-111.stampede2.tacc.utexas.edu"
PID    : 25698
I/O    : uncollated
Case   : /work2/08353/askeeler/stampede2/COE-347-SP23/reynolds_manip/reynolds200
nProcs : 1
sigFpe : Enabling floating point exception trapping (FOAM_SIGFPE).
fileModificationChecking : Monitoring run-time modified files using timeStampMaster (fileModificationSkew 10)
allowSystemOperations : Allowing user-supplied system call operations

// * * * * * * * * * * * * * * * * * * * * * * * * * * * * * * * * * * * * * //
Create time

Create mesh for time = 0

Reading transportProperties

Reading field p

Reading field U

Reading/calculating face flux field phi


Starting time loop

Time = 0.0015625

Courant Number mean: 0 max: 0
smoothSolver:  Solving for Ux, Initial residual = 1, Final residual = 6.06619e-06, No Iterations 10
smoothSolver:  Solving for Uy, Initial residual = 0, Final residual = 0, No Iterations 0
DICPCG:  Solving for p, Initial residual = 1, Final residual = 0.0468845, No Iterations 121
time step continuity errors : sum local = 1.1283e-05, global = 3.21659e-20, cumulative = 3.21659e-20
DICPCG:  Solving for p, Initial residual = 0.433717, Final residual = 9.4552e-07, No Iterations 173
time step continuity errors : sum local = 4.31695e-10, global = -1.87959e-20, cumulative = 1.33701e-20
ExecutionTime = 0.58 s  ClockTime = 1 s

Time = 0.003125

Courant Number mean: 0.0277419 max: 0.777745
smoothSolver:  Solving for Ux, Initial residual = 0.229591, Final residual = 5.23721e-06, No Iterations 10
smoothSolver:  Solving for Uy, Initial residual = 0.316796, Final residual = 4.73987e-06, No Iterations 11
DICPCG:  Solving for p, Initial residual = 0.309794, Final residual = 0.0148699, No Iterations 118
time step continuity errors : sum local = 6.46394e-06, global = 6.00221e-20, cumulative = 7.33922e-20
DICPCG:  Solving for p, Initial residual = 0.194185, Final residual = 8.98465e-07, No Iterations 170
time step continuity errors : sum local = 4.17128e-10, global = 1.96786e-20, cumulative = 9.30708e-20
ExecutionTime = 0.77 s  ClockTime = 1 s

Time = 0.0046875

Courant Number mean: 0.044503 max: 1.06915
smoothSolver:  Solving for Ux, Initial residual = 0.106821, Final residual = 7.4226e-06, No Iterations 9
smoothSolver:  Solving for Uy, Initial residual = 0.149191, Final residual = 6.30139e-06, No Iterations 10
DICPCG:  Solving for p, Initial residual = 0.145793, Final residual = 0.00571674, No Iterations 118
time step continuity errors : sum local = 2.54986e-06, global = -1.58021e-20, cumulative = 7.72687e-20
DICPCG:  Solving for p, Initial residual = 0.095536, Final residual = 9.45572e-07, No Iterations 166
time step continuity errors : sum local = 4.36603e-10, global = -7.54921e-21, cumulative = 6.97195e-20
ExecutionTime = 0.96 s  ClockTime = 1 s

Time = 0.00625

Courant Number mean: 0.056245 max: 1.19472
smoothSolver:  Solving for Ux, Initial residual = 0.0659976, Final residual = 5.00866e-06, No Iterations 9
smoothSolver:  Solving for Uy, Initial residual = 0.0919264, Final residual = 3.96871e-06, No Iterations 10
DICPCG:  Solving for p, Initial residual = 0.0845751, Final residual = 0.00390809, No Iterations 60
time step continuity errors : sum local = 2.14032e-06, global = -5.02997e-20, cumulative = 1.94198e-20
DICPCG:  Solving for p, Initial residual = 0.0574975, Final residual = 7.8365e-07, No Iterations 164
time step continuity errors : sum local = 3.73973e-10, global = -1.21628e-19, cumulative = -1.02208e-19
ExecutionTime = 1.12 s  ClockTime = 1 s

Time = 0.0078125

Courant Number mean: 0.0654573 max: 1.25927
smoothSolver:  Solving for Ux, Initial residual = 0.0472858, Final residual = 3.81126e-06, No Iterations 9
smoothSolver:  Solving for Uy, Initial residual = 0.0661147, Final residual = 7.88973e-06, No Iterations 9
DICPCG:  Solving for p, Initial residual = 0.0635441, Final residual = 0.00260767, No Iterations 59
time step continuity errors : sum local = 1.46722e-06, global = -1.13434e-19, cumulative = -2.15642e-19
DICPCG:  Solving for p, Initial residual = 0.0433503, Final residual = 9.31683e-07, No Iterations 161
time step continuity errors : sum local = 4.53488e-10, global = -5.6297e-20, cumulative = -2.71939e-19
ExecutionTime = 1.28 s  ClockTime = 1 s

Time = 0.009375

Courant Number mean: 0.0731573 max: 1.29807
smoothSolver:  Solving for Ux, Initial residual = 0.0374517, Final residual = 8.84112e-06, No Iterations 8
smoothSolver:  Solving for Uy, Initial residual = 0.0504387, Final residual = 6.0851e-06, No Iterations 9
DICPCG:  Solving for p, Initial residual = 0.0498961, Final residual = 0.00228932, No Iterations 117
time step continuity errors : sum local = 1.1245e-06, global = -7.33014e-20, cumulative = -3.4524e-19
DICPCG:  Solving for p, Initial residual = 0.0345394, Final residual = 8.57747e-07, No Iterations 160
time step continuity errors : sum local = 4.23624e-10, global = -3.54354e-20, cumulative = -3.80676e-19
ExecutionTime = 1.46 s  ClockTime = 1 s

Time = 0.0109375

Courant Number mean: 0.0798741 max: 1.3243
smoothSolver:  Solving for Ux, Initial residual = 0.0306921, Final residual = 7.48201e-06, No Iterations 8
smoothSolver:  Solving for Uy, Initial residual = 0.0414515, Final residual = 5.04853e-06, No Iterations 9
DICPCG:  Solving for p, Initial residual = 0.04126, Final residual = 0.00205013, No Iterations 57
time step continuity errors : sum local = 1.11049e-06, global = 1.00214e-19, cumulative = -2.80462e-19
DICPCG:  Solving for p, Initial residual = 0.0288603, Final residual = 9.70645e-07, No Iterations 159
time step continuity errors : sum local = 4.86347e-10, global = -8.60602e-20, cumulative = -3.66522e-19
ExecutionTime = 1.62 s  ClockTime = 2 s

Time = 0.0125

Courant Number mean: 0.0858137 max: 1.34352
smoothSolver:  Solving for Ux, Initial residual = 0.0260655, Final residual = 6.52349e-06, No Iterations 8
smoothSolver:  Solving for Uy, Initial residual = 0.0351974, Final residual = 4.30901e-06, No Iterations 9
DICPCG:  Solving for p, Initial residual = 0.0369776, Final residual = 0.00163011, No Iterations 57
time step continuity errors : sum local = 8.55612e-07, global = 2.25197e-20, cumulative = -3.44002e-19
DICPCG:  Solving for p, Initial residual = 0.0263279, Final residual = 9.73735e-07, No Iterations 156
time step continuity errors : sum local = 4.94185e-10, global = 4.15723e-20, cumulative = -3.0243e-19
ExecutionTime = 1.77 s  ClockTime = 2 s

Time = 0.0140625

Courant Number mean: 0.0912255 max: 1.3584
smoothSolver:  Solving for Ux, Initial residual = 0.0227924, Final residual = 5.84073e-06, No Iterations 8
smoothSolver:  Solving for Uy, Initial residual = 0.0303029, Final residual = 3.7252e-06, No Iterations 9
DICPCG:  Solving for p, Initial residual = 0.0323864, Final residual = 0.00160132, No Iterations 57
time step continuity errors : sum local = 9.5517e-07, global = 2.05403e-19, cumulative = -9.70268e-20
DICPCG:  Solving for p, Initial residual = 0.0235083, Final residual = 7.6281e-07, No Iterations 155
time step continuity errors : sum local = 3.90258e-10, global = -8.80456e-20, cumulative = -1.85072e-19
ExecutionTime = 1.91 s  ClockTime = 2 s

Time = 0.015625

Courant Number mean: 0.0961846 max: 1.37038
smoothSolver:  Solving for Ux, Initial residual = 0.0200807, Final residual = 5.22789e-06, No Iterations 8
smoothSolver:  Solving for Uy, Initial residual = 0.0269913, Final residual = 9.03326e-06, No Iterations 8
DICPCG:  Solving for p, Initial residual = 0.0303373, Final residual = 0.00150328, No Iterations 57
time step continuity errors : sum local = 9.11246e-07, global = -4.6766e-20, cumulative = -2.31838e-19
DICPCG:  Solving for p, Initial residual = 0.0216994, Final residual = 7.59305e-07, No Iterations 155
time step continuity errors : sum local = 3.90021e-10, global = 1.42592e-19, cumulative = -8.92464e-20
ExecutionTime = 2.06 s  ClockTime = 2 s

Time = 0.0171875

Courant Number mean: 0.100749 max: 1.3803
smoothSolver:  Solving for Ux, Initial residual = 0.0182115, Final residual = 4.83201e-06, No Iterations 8
smoothSolver:  Solving for Uy, Initial residual = 0.0238124, Final residual = 7.97733e-06, No Iterations 8
DICPCG:  Solving for p, Initial residual = 0.0275693, Final residual = 0.00122852, No Iterations 115
time step continuity errors : sum local = 6.33439e-07, global = -8.50025e-20, cumulative = -1.74249e-19
DICPCG:  Solving for p, Initial residual = 0.0196954, Final residual = 8.10693e-07, No Iterations 155
time step continuity errors : sum local = 4.17226e-10, global = 1.07605e-19, cumulative = -6.66434e-20
ExecutionTime = 2.25 s  ClockTime = 2 s

Time = 0.01875

Courant Number mean: 0.104999 max: 1.38869
smoothSolver:  Solving for Ux, Initial residual = 0.0163983, Final residual = 4.40515e-06, No Iterations 8
smoothSolver:  Solving for Uy, Initial residual = 0.0216642, Final residual = 7.28022e-06, No Iterations 8
DICPCG:  Solving for p, Initial residual = 0.024977, Final residual = 0.00112539, No Iterations 56
time step continuity errors : sum local = 6.1536e-07, global = -1.41977e-19, cumulative = -2.08621e-19
DICPCG:  Solving for p, Initial residual = 0.01783, Final residual = 8.28666e-07, No Iterations 146
time step continuity errors : sum local = 4.29236e-10, global = -1.00592e-19, cumulative = -3.09212e-19
ExecutionTime = 2.39 s  ClockTime = 2 s

Time = 0.0203125

Courant Number mean: 0.109007 max: 1.3959
smoothSolver:  Solving for Ux, Initial residual = 0.0149795, Final residual = 4.06741e-06, No Iterations 8
smoothSolver:  Solving for Uy, Initial residual = 0.0198258, Final residual = 6.66654e-06, No Iterations 8
DICPCG:  Solving for p, Initial residual = 0.0234957, Final residual = 0.00116431, No Iterations 55
time step continuity errors : sum local = 6.08476e-07, global = -1.03874e-20, cumulative = -3.196e-19
DICPCG:  Solving for p, Initial residual = 0.0170393, Final residual = 7.78991e-07, No Iterations 146
time step continuity errors : sum local = 4.04725e-10, global = 2.09383e-20, cumulative = -2.98661e-19
ExecutionTime = 2.53 s  ClockTime = 2 s

Time = 0.021875

Courant Number mean: 0.112779 max: 1.4022
smoothSolver:  Solving for Ux, Initial residual = 0.0138132, Final residual = 3.7921e-06, No Iterations 8
smoothSolver:  Solving for Uy, Initial residual = 0.0181957, Final residual = 6.12149e-06, No Iterations 8
DICPCG:  Solving for p, Initial residual = 0.021958, Final residual = 0.000961444, No Iterations 56
time step continuity errors : sum local = 5.52619e-07, global = -1.221e-19, cumulative = -4.20762e-19
DICPCG:  Solving for p, Initial residual = 0.0159377, Final residual = 8.97774e-07, No Iterations 150
time step continuity errors : sum local = 4.70023e-10, global = 3.38546e-20, cumulative = -3.86907e-19
ExecutionTime = 2.68 s  ClockTime = 3 s

Time = 0.0234375

Courant Number mean: 0.116329 max: 1.40776
smoothSolver:  Solving for Ux, Initial residual = 0.0127657, Final residual = 9.76166e-06, No Iterations 7
smoothSolver:  Solving for Uy, Initial residual = 0.0169254, Final residual = 5.6937e-06, No Iterations 8
DICPCG:  Solving for p, Initial residual = 0.0209264, Final residual = 0.00103257, No Iterations 55
time step continuity errors : sum local = 5.79342e-07, global = -3.80364e-20, cumulative = -4.24944e-19
DICPCG:  Solving for p, Initial residual = 0.015123, Final residual = 7.77865e-07, No Iterations 146
time step continuity errors : sum local = 4.07345e-10, global = 1.4549e-19, cumulative = -2.79454e-19
ExecutionTime = 2.82 s  ClockTime = 3 s

Time = 0.025

Courant Number mean: 0.119687 max: 1.41272
smoothSolver:  Solving for Ux, Initial residual = 0.0119421, Final residual = 9.21008e-06, No Iterations 7
smoothSolver:  Solving for Uy, Initial residual = 0.0156743, Final residual = 5.27047e-06, No Iterations 8
DICPCG:  Solving for p, Initial residual = 0.0198148, Final residual = 0.000943528, No Iterations 57
time step continuity errors : sum local = 5.94762e-07, global = 4.08e-20, cumulative = -2.38654e-19
DICPCG:  Solving for p, Initial residual = 0.0141716, Final residual = 9.61588e-07, No Iterations 153
time step continuity errors : sum local = 5.05759e-10, global = -1.675e-19, cumulative = -4.06154e-19
ExecutionTime = 2.97 s  ClockTime = 3 s

Time = 0.0265625

Courant Number mean: 0.122907 max: 1.41718
smoothSolver:  Solving for Ux, Initial residual = 0.011108, Final residual = 8.60902e-06, No Iterations 7
smoothSolver:  Solving for Uy, Initial residual = 0.0148218, Final residual = 4.98189e-06, No Iterations 8
DICPCG:  Solving for p, Initial residual = 0.0194108, Final residual = 0.0009634, No Iterations 59
time step continuity errors : sum local = 6.22645e-07, global = 9.99196e-20, cumulative = -3.06234e-19
DICPCG:  Solving for p, Initial residual = 0.0136521, Final residual = 7.66989e-07, No Iterations 146
time step continuity errors : sum local = 4.04553e-10, global = -7.53704e-20, cumulative = -3.81605e-19
ExecutionTime = 3.12 s  ClockTime = 3 s

Time = 0.028125

Courant Number mean: 0.125985 max: 1.42122
smoothSolver:  Solving for Ux, Initial residual = 0.0105511, Final residual = 8.25152e-06, No Iterations 7
smoothSolver:  Solving for Uy, Initial residual = 0.0137393, Final residual = 4.6097e-06, No Iterations 8
DICPCG:  Solving for p, Initial residual = 0.0184706, Final residual = 0.000861598, No Iterations 112
time step continuity errors : sum local = 4.55976e-07, global = 4.83381e-20, cumulative = -3.33266e-19
DICPCG:  Solving for p, Initial residual = 0.0133511, Final residual = 9.92148e-07, No Iterations 153
time step continuity errors : sum local = 5.2363e-10, global = -8.44472e-20, cumulative = -4.17714e-19
ExecutionTime = 3.3 s  ClockTime = 3 s

Time = 0.0296875

Courant Number mean: 0.128926 max: 1.4249
smoothSolver:  Solving for Ux, Initial residual = 0.00986368, Final residual = 7.74911e-06, No Iterations 7
smoothSolver:  Solving for Uy, Initial residual = 0.0130445, Final residual = 4.3847e-06, No Iterations 8
DICPCG:  Solving for p, Initial residual = 0.0171731, Final residual = 0.000825388, No Iterations 55
time step continuity errors : sum local = 4.53161e-07, global = 2.88487e-20, cumulative = -3.88865e-19
DICPCG:  Solving for p, Initial residual = 0.0123485, Final residual = 8.76771e-07, No Iterations 153
time step continuity errors : sum local = 4.65138e-10, global = 1.7777e-19, cumulative = -2.11095e-19
ExecutionTime = 3.45 s  ClockTime = 3 s

Time = 0.03125

Courant Number mean: 0.131737 max: 1.42827
smoothSolver:  Solving for Ux, Initial residual = 0.00930913, Final residual = 7.3501e-06, No Iterations 7
smoothSolver:  Solving for Uy, Initial residual = 0.0123759, Final residual = 4.15731e-06, No Iterations 8
DICPCG:  Solving for p, Initial residual = 0.0165876, Final residual = 0.000767771, No Iterations 55
time step continuity errors : sum local = 4.0765e-07, global = -1.30547e-19, cumulative = -3.41642e-19
DICPCG:  Solving for p, Initial residual = 0.0121995, Final residual = 9.90053e-07, No Iterations 149
time step continuity errors : sum local = 5.29144e-10, global = -6.53113e-20, cumulative = -4.06953e-19
ExecutionTime = 3.8 s  ClockTime = 4 s

Time = 0.0328125

Courant Number mean: 0.134427 max: 1.43139
smoothSolver:  Solving for Ux, Initial residual = 0.00882835, Final residual = 7.00601e-06, No Iterations 7
smoothSolver:  Solving for Uy, Initial residual = 0.0117415, Final residual = 3.94097e-06, No Iterations 8
DICPCG:  Solving for p, Initial residual = 0.0158471, Final residual = 0.000759946, No Iterations 55
time step continuity errors : sum local = 4.27849e-07, global = 9.93036e-20, cumulative = -3.0765e-19
DICPCG:  Solving for p, Initial residual = 0.0117515, Final residual = 9.62485e-07, No Iterations 152
time step continuity errors : sum local = 5.13655e-10, global = -1.22271e-19, cumulative = -4.2992e-19
ExecutionTime = 3.94 s  ClockTime = 4 s

Time = 0.034375

Courant Number mean: 0.137025 max: 1.43427
smoothSolver:  Solving for Ux, Initial residual = 0.00838102, Final residual = 6.67567e-06, No Iterations 7
smoothSolver:  Solving for Uy, Initial residual = 0.011209, Final residual = 3.75934e-06, No Iterations 8
DICPCG:  Solving for p, Initial residual = 0.0154684, Final residual = 0.000726267, No Iterations 55
time step continuity errors : sum local = 4.00027e-07, global = 5.1201e-20, cumulative = -3.78719e-19
DICPCG:  Solving for p, Initial residual = 0.0113868, Final residual = 8.87338e-07, No Iterations 149
time step continuity errors : sum local = 4.76411e-10, global = 1.73896e-19, cumulative = -2.04823e-19
ExecutionTime = 4.09 s  ClockTime = 4 s

Time = 0.0359375

Courant Number mean: 0.13954 max: 1.43696
smoothSolver:  Solving for Ux, Initial residual = 0.00799885, Final residual = 6.40153e-06, No Iterations 7
smoothSolver:  Solving for Uy, Initial residual = 0.0106738, Final residual = 9.71206e-06, No Iterations 7
DICPCG:  Solving for p, Initial residual = 0.0149, Final residual = 0.000632799, No Iterations 56
time step continuity errors : sum local = 3.80596e-07, global = 1.56696e-20, cumulative = -1.89153e-19
DICPCG:  Solving for p, Initial residual = 0.01089, Final residual = 9.2469e-07, No Iterations 150
time step continuity errors : sum local = 4.96897e-10, global = 2.3162e-19, cumulative = 4.24663e-20
ExecutionTime = 4.23 s  ClockTime = 4 s

Time = 0.0375

Courant Number mean: 0.141968 max: 1.43947
smoothSolver:  Solving for Ux, Initial residual = 0.00761171, Final residual = 6.11043e-06, No Iterations 7
smoothSolver:  Solving for Uy, Initial residual = 0.0102678, Final residual = 9.33553e-06, No Iterations 7
DICPCG:  Solving for p, Initial residual = 0.0146326, Final residual = 0.000644822, No Iterations 56
time step continuity errors : sum local = 3.88865e-07, global = 7.22498e-20, cumulative = 1.14716e-19
DICPCG:  Solving for p, Initial residual = 0.0106754, Final residual = 9.04541e-07, No Iterations 144
time step continuity errors : sum local = 4.84588e-10, global = 1.08065e-19, cumulative = 2.22781e-19
ExecutionTime = 4.37 s  ClockTime = 4 s

Time = 0.0390625

Courant Number mean: 0.144313 max: 1.44182
smoothSolver:  Solving for Ux, Initial residual = 0.00731738, Final residual = 5.90212e-06, No Iterations 7
smoothSolver:  Solving for Uy, Initial residual = 0.00978087, Final residual = 8.87815e-06, No Iterations 7
DICPCG:  Solving for p, Initial residual = 0.0141153, Final residual = 0.000680037, No Iterations 59
time step continuity errors : sum local = 4.53539e-07, global = 7.79751e-20, cumulative = 3.00756e-19
DICPCG:  Solving for p, Initial residual = 0.0101029, Final residual = 9.29739e-07, No Iterations 148
time step continuity errors : sum local = 4.99901e-10, global = 1.75269e-20, cumulative = 3.18283e-19
ExecutionTime = 4.52 s  ClockTime = 4 s

Time = 0.040625

Courant Number mean: 0.146576 max: 1.44404
smoothSolver:  Solving for Ux, Initial residual = 0.00696445, Final residual = 5.62244e-06, No Iterations 7
smoothSolver:  Solving for Uy, Initial residual = 0.00950709, Final residual = 8.62319e-06, No Iterations 7
DICPCG:  Solving for p, Initial residual = 0.0142149, Final residual = 0.000542186, No Iterations 111
time step continuity errors : sum local = 2.91485e-07, global = 2.01159e-20, cumulative = 3.38399e-19
DICPCG:  Solving for p, Initial residual = 0.0101236, Final residual = 8.62868e-07, No Iterations 144
time step continuity errors : sum local = 4.65848e-10, global = 9.68344e-20, cumulative = 4.35233e-19
ExecutionTime = 4.69 s  ClockTime = 5 s

Time = 0.0421875

Courant Number mean: 0.148762 max: 1.44613
smoothSolver:  Solving for Ux, Initial residual = 0.00670154, Final residual = 5.43713e-06, No Iterations 7
smoothSolver:  Solving for Uy, Initial residual = 0.00907228, Final residual = 8.22805e-06, No Iterations 7
DICPCG:  Solving for p, Initial residual = 0.0130478, Final residual = 0.000651411, No Iterations 55
time step continuity errors : sum local = 3.70951e-07, global = 1.71047e-19, cumulative = 6.0628e-19
DICPCG:  Solving for p, Initial residual = 0.00948912, Final residual = 9.29273e-07, No Iterations 151
time step continuity errors : sum local = 5.01827e-10, global = -6.16549e-20, cumulative = 5.44625e-19
ExecutionTime = 4.83 s  ClockTime = 5 s

Time = 0.04375

Courant Number mean: 0.150877 max: 1.44812
smoothSolver:  Solving for Ux, Initial residual = 0.00642814, Final residual = 5.22966e-06, No Iterations 7
smoothSolver:  Solving for Uy, Initial residual = 0.00876975, Final residual = 7.94693e-06, No Iterations 7
DICPCG:  Solving for p, Initial residual = 0.0130259, Final residual = 0.000630566, No Iterations 55
time step continuity errors : sum local = 3.54626e-07, global = -3.45211e-20, cumulative = 5.10104e-19
DICPCG:  Solving for p, Initial residual = 0.00964722, Final residual = 9.29923e-07, No Iterations 144
time step continuity errors : sum local = 5.03814e-10, global = -1.40549e-19, cumulative = 3.69554e-19
ExecutionTime = 4.97 s  ClockTime = 5 s

Time = 0.0453125

Courant Number mean: 0.152944 max: 1.45
smoothSolver:  Solving for Ux, Initial residual = 0.00619833, Final residual = 5.06007e-06, No Iterations 7
smoothSolver:  Solving for Uy, Initial residual = 0.00844279, Final residual = 7.64038e-06, No Iterations 7
DICPCG:  Solving for p, Initial residual = 0.0126245, Final residual = 0.000545886, No Iterations 56
time step continuity errors : sum local = 3.3318e-07, global = 1.24438e-19, cumulative = 4.93992e-19
DICPCG:  Solving for p, Initial residual = 0.00927854, Final residual = 8.87792e-07, No Iterations 146
time step continuity errors : sum local = 4.81697e-10, global = 7.33802e-20, cumulative = 5.67373e-19
ExecutionTime = 5.11 s  ClockTime = 5 s

Time = 0.046875

Courant Number mean: 0.154956 max: 1.4518
smoothSolver:  Solving for Ux, Initial residual = 0.00595531, Final residual = 4.86666e-06, No Iterations 7
smoothSolver:  Solving for Uy, Initial residual = 0.0082069, Final residual = 7.4212e-06, No Iterations 7
DICPCG:  Solving for p, Initial residual = 0.0124909, Final residual = 0.000573401, No Iterations 56
time step continuity errors : sum local = 3.53142e-07, global = 9.41966e-20, cumulative = 6.61569e-19
DICPCG:  Solving for p, Initial residual = 0.00918365, Final residual = 9.27867e-07, No Iterations 149
time step continuity errors : sum local = 5.0288e-10, global = -5.16358e-20, cumulative = 6.09934e-19
ExecutionTime = 5.25 s  ClockTime = 5 s

Time = 0.0484375

Courant Number mean: 0.156914 max: 1.45351
smoothSolver:  Solving for Ux, Initial residual = 0.00577952, Final residual = 4.74126e-06, No Iterations 7
smoothSolver:  Solving for Uy, Initial residual = 0.00788983, Final residual = 7.12041e-06, No Iterations 7
DICPCG:  Solving for p, Initial residual = 0.0121536, Final residual = 0.000506501, No Iterations 111
time step continuity errors : sum local = 2.75386e-07, global = -2.61477e-20, cumulative = 5.83786e-19
DICPCG:  Solving for p, Initial residual = 0.00877523, Final residual = 9.63445e-07, No Iterations 151
time step continuity errors : sum local = 5.24171e-10, global = -1.09905e-19, cumulative = 4.73881e-19
ExecutionTime = 5.43 s  ClockTime = 5 s

Time = 0.05

Courant Number mean: 0.158819 max: 1.45516
smoothSolver:  Solving for Ux, Initial residual = 0.00555772, Final residual = 4.57012e-06, No Iterations 7
smoothSolver:  Solving for Uy, Initial residual = 0.00766936, Final residual = 6.92394e-06, No Iterations 7
DICPCG:  Solving for p, Initial residual = 0.0115767, Final residual = 0.000557167, No Iterations 55
time step continuity errors : sum local = 3.12057e-07, global = 1.31779e-20, cumulative = 4.87059e-19
DICPCG:  Solving for p, Initial residual = 0.00845261, Final residual = 9.29661e-07, No Iterations 148
time step continuity errors : sum local = 5.07249e-10, global = -3.05243e-19, cumulative = 1.81816e-19
ExecutionTime = 5.57 s  ClockTime = 6 s

Time = 0.0515625

Courant Number mean: 0.160671 max: 1.45672
smoothSolver:  Solving for Ux, Initial residual = 0.00536526, Final residual = 4.42061e-06, No Iterations 7
smoothSolver:  Solving for Uy, Initial residual = 0.00745237, Final residual = 6.72183e-06, No Iterations 7
DICPCG:  Solving for p, Initial residual = 0.0115241, Final residual = 0.000539583, No Iterations 55
time step continuity errors : sum local = 2.96212e-07, global = -8.70952e-20, cumulative = 9.47211e-20
DICPCG:  Solving for p, Initial residual = 0.00857598, Final residual = 9.6997e-07, No Iterations 147
time step continuity errors : sum local = 5.30559e-10, global = 2.44078e-19, cumulative = 3.38799e-19
ExecutionTime = 5.72 s  ClockTime = 6 s

Time = 0.053125

Courant Number mean: 0.162473 max: 1.45822
smoothSolver:  Solving for Ux, Initial residual = 0.00519602, Final residual = 4.29028e-06, No Iterations 7
smoothSolver:  Solving for Uy, Initial residual = 0.007232, Final residual = 6.51546e-06, No Iterations 7
DICPCG:  Solving for p, Initial residual = 0.0112256, Final residual = 0.000534733, No Iterations 55
time step continuity errors : sum local = 3.06828e-07, global = 4.36927e-20, cumulative = 3.82492e-19
DICPCG:  Solving for p, Initial residual = 0.00838553, Final residual = 9.75102e-07, No Iterations 145
time step continuity errors : sum local = 5.35218e-10, global = -1.60063e-19, cumulative = 2.22429e-19
ExecutionTime = 5.86 s  ClockTime = 6 s

Time = 0.0546875

Courant Number mean: 0.164227 max: 1.45966
smoothSolver:  Solving for Ux, Initial residual = 0.00502779, Final residual = 4.15718e-06, No Iterations 7
smoothSolver:  Solving for Uy, Initial residual = 0.00704597, Final residual = 6.34327e-06, No Iterations 7
DICPCG:  Solving for p, Initial residual = 0.011093, Final residual = 0.000527301, No Iterations 55
time step continuity errors : sum local = 3.00575e-07, global = 1.10494e-19, cumulative = 3.32923e-19
DICPCG:  Solving for p, Initial residual = 0.00824743, Final residual = 9.0209e-07, No Iterations 149
time step continuity errors : sum local = 4.93169e-10, global = -7.16856e-21, cumulative = 3.25754e-19
ExecutionTime = 6 s  ClockTime = 6 s

Time = 0.05625

Courant Number mean: 0.165936 max: 1.46104
smoothSolver:  Solving for Ux, Initial residual = 0.00488403, Final residual = 4.04965e-06, No Iterations 7
smoothSolver:  Solving for Uy, Initial residual = 0.00683995, Final residual = 6.14896e-06, No Iterations 7
DICPCG:  Solving for p, Initial residual = 0.010837, Final residual = 0.000458348, No Iterations 56
time step continuity errors : sum local = 2.8079e-07, global = 1.58441e-20, cumulative = 3.41598e-19
DICPCG:  Solving for p, Initial residual = 0.0079961, Final residual = 9.16481e-07, No Iterations 145
time step continuity errors : sum local = 5.04526e-10, global = 8.87438e-20, cumulative = 4.30342e-19
ExecutionTime = 6.14 s  ClockTime = 6 s

Time = 0.0578125

Courant Number mean: 0.167617 max: 1.46236
smoothSolver:  Solving for Ux, Initial residual = 0.00472681, Final residual = 3.92305e-06, No Iterations 7
smoothSolver:  Solving for Uy, Initial residual = 0.00669337, Final residual = 6.01356e-06, No Iterations 7
DICPCG:  Solving for p, Initial residual = 0.0107481, Final residual = 0.000488694, No Iterations 56
time step continuity errors : sum local = 3.02865e-07, global = -3.51608e-20, cumulative = 3.95181e-19
DICPCG:  Solving for p, Initial residual = 0.00795207, Final residual = 9.43152e-07, No Iterations 149
time step continuity errors : sum local = 5.17537e-10, global = -2.29779e-20, cumulative = 3.72203e-19
ExecutionTime = 6.29 s  ClockTime = 6 s

Time = 0.059375

Courant Number mean: 0.169264 max: 1.46364
smoothSolver:  Solving for Ux, Initial residual = 0.00461593, Final residual = 3.84208e-06, No Iterations 7
smoothSolver:  Solving for Uy, Initial residual = 0.00648438, Final residual = 5.8142e-06, No Iterations 7
DICPCG:  Solving for p, Initial residual = 0.0105243, Final residual = 0.00051575, No Iterations 111
time step continuity errors : sum local = 2.83713e-07, global = -5.3217e-20, cumulative = 3.18986e-19
DICPCG:  Solving for p, Initial residual = 0.00767752, Final residual = 9.04224e-07, No Iterations 149
time step continuity errors : sum local = 4.98539e-10, global = 8.6606e-20, cumulative = 4.05592e-19
ExecutionTime = 6.46 s  ClockTime = 6 s

Time = 0.0609375

Courant Number mean: 0.170874 max: 1.46486
smoothSolver:  Solving for Ux, Initial residual = 0.00446947, Final residual = 3.72507e-06, No Iterations 7
smoothSolver:  Solving for Uy, Initial residual = 0.00634201, Final residual = 5.68845e-06, No Iterations 7
DICPCG:  Solving for p, Initial residual = 0.0101416, Final residual = 0.000475536, No Iterations 55
time step continuity errors : sum local = 2.67567e-07, global = 4.69454e-20, cumulative = 4.52538e-19
DICPCG:  Solving for p, Initial residual = 0.00741558, Final residual = 9.0172e-07, No Iterations 149
time step continuity errors : sum local = 4.9596e-10, global = -4.95133e-21, cumulative = 4.47586e-19
ExecutionTime = 6.61 s  ClockTime = 7 s

Time = 0.0625

Courant Number mean: 0.17245 max: 1.46603
smoothSolver:  Solving for Ux, Initial residual = 0.00434177, Final residual = 9.93697e-06, No Iterations 6
smoothSolver:  Solving for Uy, Initial residual = 0.00619701, Final residual = 5.55392e-06, No Iterations 7
DICPCG:  Solving for p, Initial residual = 0.0100616, Final residual = 0.000455995, No Iterations 55
time step continuity errors : sum local = 2.5283e-07, global = -1.86669e-19, cumulative = 2.60917e-19
DICPCG:  Solving for p, Initial residual = 0.00751073, Final residual = 9.64458e-07, No Iterations 147
time step continuity errors : sum local = 5.32701e-10, global = 2.67687e-19, cumulative = 5.28604e-19
ExecutionTime = 6.95 s  ClockTime = 7 s

Time = 0.0640625

Courant Number mean: 0.173992 max: 1.46716
smoothSolver:  Solving for Ux, Initial residual = 0.00422775, Final residual = 9.69366e-06, No Iterations 6
smoothSolver:  Solving for Uy, Initial residual = 0.00604927, Final residual = 5.41592e-06, No Iterations 7
DICPCG:  Solving for p, Initial residual = 0.00983453, Final residual = 0.000448282, No Iterations 55
time step continuity errors : sum local = 2.57494e-07, global = -2.5252e-20, cumulative = 5.03352e-19
DICPCG:  Solving for p, Initial residual = 0.00735957, Final residual = 9.17656e-07, No Iterations 146
time step continuity errors : sum local = 5.08423e-10, global = 6.08829e-20, cumulative = 5.64235e-19
ExecutionTime = 7.09 s  ClockTime = 7 s

Time = 0.065625

Courant Number mean: 0.1755 max: 1.46825
smoothSolver:  Solving for Ux, Initial residual = 0.00411337, Final residual = 9.44351e-06, No Iterations 6
smoothSolver:  Solving for Uy, Initial residual = 0.00592133, Final residual = 5.29828e-06, No Iterations 7
DICPCG:  Solving for p, Initial residual = 0.00973495, Final residual = 0.000485705, No Iterations 54
time step continuity errors : sum local = 2.7709e-07, global = 1.44501e-20, cumulative = 5.78685e-19
DICPCG:  Solving for p, Initial residual = 0.00725289, Final residual = 9.37442e-07, No Iterations 148
time step continuity errors : sum local = 5.18048e-10, global = 2.2266e-19, cumulative = 8.01345e-19
ExecutionTime = 7.24 s  ClockTime = 7 s

Time = 0.0671875

Courant Number mean: 0.176977 max: 1.46929
smoothSolver:  Solving for Ux, Initial residual = 0.00401373, Final residual = 9.22985e-06, No Iterations 6
smoothSolver:  Solving for Uy, Initial residual = 0.00578273, Final residual = 5.16759e-06, No Iterations 7
DICPCG:  Solving for p, Initial residual = 0.00960632, Final residual = 0.000450502, No Iterations 55
time step continuity errors : sum local = 2.69773e-07, global = -1.3001e-19, cumulative = 6.71335e-19
DICPCG:  Solving for p, Initial residual = 0.00714558, Final residual = 9.42111e-07, No Iterations 145
time step continuity errors : sum local = 5.23447e-10, global = 1.16051e-19, cumulative = 7.87386e-19
ExecutionTime = 7.37 s  ClockTime = 7 s

Time = 0.06875

Courant Number mean: 0.178423 max: 1.4703
smoothSolver:  Solving for Ux, Initial residual = 0.0039072, Final residual = 8.98753e-06, No Iterations 6
smoothSolver:  Solving for Uy, Initial residual = 0.00567746, Final residual = 5.07144e-06, No Iterations 7
DICPCG:  Solving for p, Initial residual = 0.00950915, Final residual = 0.000469738, No Iterations 55
time step continuity errors : sum local = 2.84837e-07, global = 1.04379e-20, cumulative = 7.97823e-19
DICPCG:  Solving for p, Initial residual = 0.00711739, Final residual = 8.13773e-07, No Iterations 149
time step continuity errors : sum local = 4.50491e-10, global = -1.39541e-19, cumulative = 6.58282e-19
ExecutionTime = 7.52 s  ClockTime = 7 s

Time = 0.0703125

Courant Number mean: 0.179837 max: 1.47127
smoothSolver:  Solving for Ux, Initial residual = 0.00382888, Final residual = 8.82656e-06, No Iterations 6
smoothSolver:  Solving for Uy, Initial residual = 0.00553321, Final residual = 4.93425e-06, No Iterations 7
DICPCG:  Solving for p, Initial residual = 0.00934239, Final residual = 0.000465415, No Iterations 57
time step continuity errors : sum local = 3.04605e-07, global = -8.69953e-20, cumulative = 5.71287e-19
DICPCG:  Solving for p, Initial residual = 0.00685045, Final residual = 8.50213e-07, No Iterations 145
time step continuity errors : sum local = 4.7254e-10, global = -5.92377e-20, cumulative = 5.12049e-19
ExecutionTime = 7.65 s  ClockTime = 8 s

Time = 0.071875

Courant Number mean: 0.181231 max: 1.47221
smoothSolver:  Solving for Ux, Initial residual = 0.00372008, Final residual = 8.57499e-06, No Iterations 6
smoothSolver:  Solving for Uy, Initial residual = 0.00546391, Final residual = 4.87157e-06, No Iterations 7
DICPCG:  Solving for p, Initial residual = 0.00942958, Final residual = 0.000470203, No Iterations 111
time step continuity errors : sum local = 2.61772e-07, global = 1.06186e-19, cumulative = 6.18235e-19
DICPCG:  Solving for p, Initial residual = 0.00689095, Final residual = 9.61908e-07, No Iterations 144
time step continuity errors : sum local = 5.34382e-10, global = -1.21619e-19, cumulative = 4.96616e-19
ExecutionTime = 7.84 s  ClockTime = 8 s

Time = 0.0734375

Courant Number mean: 0.182604 max: 1.47311
smoothSolver:  Solving for Ux, Initial residual = 0.00364178, Final residual = 8.41576e-06, No Iterations 6
smoothSolver:  Solving for Uy, Initial residual = 0.00532166, Final residual = 4.74212e-06, No Iterations 7
DICPCG:  Solving for p, Initial residual = 0.00895018, Final residual = 0.000438186, No Iterations 54
time step continuity errors : sum local = 2.52343e-07, global = 1.61034e-19, cumulative = 6.5765e-19
DICPCG:  Solving for p, Initial residual = 0.00658994, Final residual = 8.7563e-07, No Iterations 145
time step continuity errors : sum local = 4.88426e-10, global = 1.81089e-19, cumulative = 8.38739e-19
ExecutionTime = 7.98 s  ClockTime = 8 s

Time = 0.075

Courant Number mean: 0.183957 max: 1.47399
smoothSolver:  Solving for Ux, Initial residual = 0.0035535, Final residual = 8.21556e-06, No Iterations 6
smoothSolver:  Solving for Uy, Initial residual = 0.00522628, Final residual = 4.655e-06, No Iterations 7
DICPCG:  Solving for p, Initial residual = 0.00892656, Final residual = 0.000420768, No Iterations 54
time step continuity errors : sum local = 2.4266e-07, global = -3.24862e-20, cumulative = 8.06253e-19
DICPCG:  Solving for p, Initial residual = 0.00670445, Final residual = 9.63293e-07, No Iterations 148
time step continuity errors : sum local = 5.35892e-10, global = 9.00877e-20, cumulative = 8.9634e-19
ExecutionTime = 8.13 s  ClockTime = 8 s

Time = 0.0765625

Courant Number mean: 0.185286 max: 1.47483
smoothSolver:  Solving for Ux, Initial residual = 0.00347997, Final residual = 8.05774e-06, No Iterations 6
smoothSolver:  Solving for Uy, Initial residual = 0.00511756, Final residual = 4.55318e-06, No Iterations 7
DICPCG:  Solving for p, Initial residual = 0.00874536, Final residual = 0.000432638, No Iterations 54
time step continuity errors : sum local = 2.59369e-07, global = -4.16377e-20, cumulative = 8.54703e-19
DICPCG:  Solving for p, Initial residual = 0.00659977, Final residual = 9.90921e-07, No Iterations 145
time step continuity errors : sum local = 5.54007e-10, global = -3.40709e-19, cumulative = 5.13994e-19
ExecutionTime = 8.28 s  ClockTime = 8 s

Time = 0.078125

Courant Number mean: 0.186593 max: 1.47565
smoothSolver:  Solving for Ux, Initial residual = 0.00339761, Final residual = 7.87131e-06, No Iterations 6
smoothSolver:  Solving for Uy, Initial residual = 0.00503911, Final residual = 4.48213e-06, No Iterations 7
DICPCG:  Solving for p, Initial residual = 0.00871936, Final residual = 0.000414038, No Iterations 55
time step continuity errors : sum local = 2.54056e-07, global = 1.81676e-19, cumulative = 6.95669e-19
DICPCG:  Solving for p, Initial residual = 0.00648823, Final residual = 9.73225e-07, No Iterations 148
time step continuity errors : sum local = 5.42202e-10, global = -4.02698e-20, cumulative = 6.55399e-19
ExecutionTime = 8.42 s  ClockTime = 8 s

Time = 0.0796875

Courant Number mean: 0.187877 max: 1.47644
smoothSolver:  Solving for Ux, Initial residual = 0.00333963, Final residual = 7.75193e-06, No Iterations 6
smoothSolver:  Solving for Uy, Initial residual = 0.0049233, Final residual = 4.37217e-06, No Iterations 7
DICPCG:  Solving for p, Initial residual = 0.00855969, Final residual = 0.000399814, No Iterations 58
time step continuity errors : sum local = 2.66044e-07, global = 1.07905e-20, cumulative = 6.6619e-19
DICPCG:  Solving for p, Initial residual = 0.00623198, Final residual = 8.97886e-07, No Iterations 145
time step continuity errors : sum local = 5.02658e-10, global = 1.24589e-19, cumulative = 7.90779e-19
ExecutionTime = 8.57 s  ClockTime = 9 s

Time = 0.08125

Courant Number mean: 0.18914 max: 1.4772
smoothSolver:  Solving for Ux, Initial residual = 0.00325533, Final residual = 7.55281e-06, No Iterations 6
smoothSolver:  Solving for Uy, Initial residual = 0.00487085, Final residual = 4.32556e-06, No Iterations 7
DICPCG:  Solving for p, Initial residual = 0.00864179, Final residual = 0.000424144, No Iterations 111
time step continuity errors : sum local = 2.37919e-07, global = 1.30385e-19, cumulative = 9.21164e-19
DICPCG:  Solving for p, Initial residual = 0.00634994, Final residual = 8.8704e-07, No Iterations 145
time step continuity errors : sum local = 4.95687e-10, global = 1.88872e-19, cumulative = 1.11004e-18
ExecutionTime = 8.75 s  ClockTime = 9 s

Time = 0.0828125

Courant Number mean: 0.190379 max: 1.47794
smoothSolver:  Solving for Ux, Initial residual = 0.00319615, Final residual = 7.43068e-06, No Iterations 6
smoothSolver:  Solving for Uy, Initial residual = 0.00475752, Final residual = 4.22339e-06, No Iterations 7
DICPCG:  Solving for p, Initial residual = 0.00822191, Final residual = 0.000388822, No Iterations 54
time step continuity errors : sum local = 2.25015e-07, global = 4.01692e-20, cumulative = 1.1502e-18
DICPCG:  Solving for p, Initial residual = 0.0060698, Final residual = 9.1327e-07, No Iterations 146
time step continuity errors : sum local = 5.121e-10, global = -1.0533e-19, cumulative = 1.04488e-18
ExecutionTime = 8.9 s  ClockTime = 9 s

Time = 0.084375

Courant Number mean: 0.191597 max: 1.47865
smoothSolver:  Solving for Ux, Initial residual = 0.00312742, Final residual = 7.27539e-06, No Iterations 6
smoothSolver:  Solving for Uy, Initial residual = 0.00468166, Final residual = 4.15475e-06, No Iterations 7
DICPCG:  Solving for p, Initial residual = 0.00821415, Final residual = 0.00040163, No Iterations 53
time step continuity errors : sum local = 2.32687e-07, global = -1.91647e-19, cumulative = 8.53228e-19
DICPCG:  Solving for p, Initial residual = 0.0061699, Final residual = 9.10792e-07, No Iterations 148
time step continuity errors : sum local = 5.09862e-10, global = 2.47735e-19, cumulative = 1.10096e-18
ExecutionTime = 9.04 s  ClockTime = 9 s

Time = 0.0859375

Courant Number mean: 0.192795 max: 1.47934
smoothSolver:  Solving for Ux, Initial residual = 0.00307, Final residual = 7.15324e-06, No Iterations 6
smoothSolver:  Solving for Uy, Initial residual = 0.00459609, Final residual = 4.07497e-06, No Iterations 7
DICPCG:  Solving for p, Initial residual = 0.00811152, Final residual = 0.000401616, No Iterations 53
time step continuity errors : sum local = 2.40864e-07, global = 7.45149e-20, cumulative = 1.17548e-18
DICPCG:  Solving for p, Initial residual = 0.0061544, Final residual = 9.1849e-07, No Iterations 146
time step continuity errors : sum local = 5.15665e-10, global = 1.92905e-19, cumulative = 1.36838e-18
ExecutionTime = 9.18 s  ClockTime = 9 s

Time = 0.0875

Courant Number mean: 0.193977 max: 1.48001
smoothSolver:  Solving for Ux, Initial residual = 0.00300539, Final residual = 7.00477e-06, No Iterations 6
smoothSolver:  Solving for Uy, Initial residual = 0.00453362, Final residual = 4.01893e-06, No Iterations 7
DICPCG:  Solving for p, Initial residual = 0.00807704, Final residual = 0.000396644, No Iterations 54
time step continuity errors : sum local = 2.43764e-07, global = 4.14851e-20, cumulative = 1.40987e-18
DICPCG:  Solving for p, Initial residual = 0.00604232, Final residual = 8.9856e-07, No Iterations 148
time step continuity errors : sum local = 5.03799e-10, global = 1.5406e-19, cumulative = 1.56393e-18
ExecutionTime = 9.31 s  ClockTime = 9 s

Time = 0.0890625

Courant Number mean: 0.195148 max: 1.48066
smoothSolver:  Solving for Ux, Initial residual = 0.00296182, Final residual = 6.91309e-06, No Iterations 6
smoothSolver:  Solving for Uy, Initial residual = 0.00443942, Final residual = 3.92958e-06, No Iterations 7
DICPCG:  Solving for p, Initial residual = 0.00794856, Final residual = 0.000356174, No Iterations 58
time step continuity errors : sum local = 2.38168e-07, global = 2.85474e-21, cumulative = 1.56678e-18
DICPCG:  Solving for p, Initial residual = 0.00581332, Final residual = 9.43488e-07, No Iterations 145
time step continuity errors : sum local = 5.30929e-10, global = -1.66261e-19, cumulative = 1.40052e-18
ExecutionTime = 9.45 s  ClockTime = 9 s

Time = 0.090625

Courant Number mean: 0.196305 max: 1.48129
smoothSolver:  Solving for Ux, Initial residual = 0.00289591, Final residual = 6.75576e-06, No Iterations 6
smoothSolver:  Solving for Uy, Initial residual = 0.00439661, Final residual = 3.89209e-06, No Iterations 7
DICPCG:  Solving for p, Initial residual = 0.00799029, Final residual = 0.000382125, No Iterations 99
time step continuity errors : sum local = 2.17211e-07, global = 2.17243e-19, cumulative = 1.61776e-18
DICPCG:  Solving for p, Initial residual = 0.00589134, Final residual = 9.70477e-07, No Iterations 144
time step continuity errors : sum local = 5.4545e-10, global = 3.71485e-19, cumulative = 1.98925e-18
ExecutionTime = 9.62 s  ClockTime = 10 s

Time = 0.0921875

Courant Number mean: 0.197446 max: 1.4819
smoothSolver:  Solving for Ux, Initial residual = 0.00285294, Final residual = 6.67086e-06, No Iterations 6
smoothSolver:  Solving for Uy, Initial residual = 0.0043068, Final residual = 3.81223e-06, No Iterations 7
DICPCG:  Solving for p, Initial residual = 0.00767916, Final residual = 0.000380415, No Iterations 53
time step continuity errors : sum local = 2.22007e-07, global = -5.28213e-19, cumulative = 1.46104e-18
DICPCG:  Solving for p, Initial residual = 0.00569941, Final residual = 9.35282e-07, No Iterations 148
time step continuity errors : sum local = 5.26074e-10, global = 4.87079e-20, cumulative = 1.50974e-18
ExecutionTime = 9.76 s  ClockTime = 10 s

Time = 0.09375

Courant Number mean: 0.198571 max: 1.48249
smoothSolver:  Solving for Ux, Initial residual = 0.00279346, Final residual = 6.53485e-06, No Iterations 6
smoothSolver:  Solving for Uy, Initial residual = 0.0042436, Final residual = 3.75496e-06, No Iterations 7
DICPCG:  Solving for p, Initial residual = 0.00766494, Final residual = 0.000350477, No Iterations 53
time step continuity errors : sum local = 2.06648e-07, global = -7.63155e-20, cumulative = 1.43343e-18
DICPCG:  Solving for p, Initial residual = 0.00579443, Final residual = 9.59232e-07, No Iterations 146
time step continuity errors : sum local = 5.39981e-10, global = -2.33562e-19, cumulative = 1.19987e-18
ExecutionTime = 10.11 s  ClockTime = 10 s

Time = 0.0953125

Courant Number mean: 0.199679 max: 1.48306
smoothSolver:  Solving for Ux, Initial residual = 0.00275002, Final residual = 6.44165e-06, No Iterations 6
smoothSolver:  Solving for Uy, Initial residual = 0.00417018, Final residual = 3.687e-06, No Iterations 7
DICPCG:  Solving for p, Initial residual = 0.00751676, Final residual = 0.000362196, No Iterations 53
time step continuity errors : sum local = 2.21419e-07, global = 5.02302e-20, cumulative = 1.2501e-18
DICPCG:  Solving for p, Initial residual = 0.0057077, Final residual = 9.32148e-07, No Iterations 146
time step continuity errors : sum local = 5.25657e-10, global = 3.07026e-19, cumulative = 1.55712e-18
ExecutionTime = 10.24 s  ClockTime = 10 s

Time = 0.096875

Courant Number mean: 0.200772 max: 1.48361
smoothSolver:  Solving for Ux, Initial residual = 0.00269743, Final residual = 6.31759e-06, No Iterations 6
smoothSolver:  Solving for Uy, Initial residual = 0.00412224, Final residual = 9.93615e-06, No Iterations 6
DICPCG:  Solving for p, Initial residual = 0.00749858, Final residual = 0.000374262, No Iterations 54
time step continuity errors : sum local = 2.35056e-07, global = 1.50361e-19, cumulative = 1.70748e-18
DICPCG:  Solving for p, Initial residual = 0.00561739, Final residual = 9.82545e-07, No Iterations 146
time step continuity errors : sum local = 5.53365e-10, global = 8.1645e-20, cumulative = 1.78913e-18
ExecutionTime = 10.39 s  ClockTime = 10 s

Time = 0.0984375

Courant Number mean: 0.201851 max: 1.48415
smoothSolver:  Solving for Ux, Initial residual = 0.00266624, Final residual = 6.25414e-06, No Iterations 6
smoothSolver:  Solving for Uy, Initial residual = 0.00403961, Final residual = 9.7245e-06, No Iterations 6
DICPCG:  Solving for p, Initial residual = 0.0074046, Final residual = 0.000353234, No Iterations 98
time step continuity errors : sum local = 1.99954e-07, global = 2.39202e-19, cumulative = 2.02833e-18
DICPCG:  Solving for p, Initial residual = 0.00546663, Final residual = 8.95098e-07, No Iterations 145
time step continuity errors : sum local = 5.06655e-10, global = 1.6133e-19, cumulative = 2.18966e-18
ExecutionTime = 10.55 s  ClockTime = 11 s

Time = 0.1

Courant Number mean: 0.202913 max: 1.48468
smoothSolver:  Solving for Ux, Initial residual = 0.00261792, Final residual = 6.14623e-06, No Iterations 6
smoothSolver:  Solving for Uy, Initial residual = 0.00398873, Final residual = 9.60841e-06, No Iterations 6
DICPCG:  Solving for p, Initial residual = 0.00718728, Final residual = 0.000352171, No Iterations 52
time step continuity errors : sum local = 2.00658e-07, global = -1.72794e-19, cumulative = 2.01687e-18
DICPCG:  Solving for p, Initial residual = 0.00534041, Final residual = 9.27474e-07, No Iterations 148
time step continuity errors : sum local = 5.2385e-10, global = -1.36168e-19, cumulative = 1.8807e-18
ExecutionTime = 10.7 s  ClockTime = 11 s

Time = 0.101562

Courant Number mean: 0.203959 max: 1.48519
smoothSolver:  Solving for Ux, Initial residual = 0.00256906, Final residual = 6.03495e-06, No Iterations 6
smoothSolver:  Solving for Uy, Initial residual = 0.00393219, Final residual = 9.46914e-06, No Iterations 6
DICPCG:  Solving for p, Initial residual = 0.00717446, Final residual = 0.000356894, No Iterations 49
time step continuity errors : sum local = 2.0219e-07, global = -1.68646e-19, cumulative = 1.71205e-18
DICPCG:  Solving for p, Initial residual = 0.00530577, Final residual = 9.51588e-07, No Iterations 145
time step continuity errors : sum local = 5.38052e-10, global = -1.48309e-19, cumulative = 1.56374e-18
ExecutionTime = 10.83 s  ClockTime = 11 s

Time = 0.103125

Courant Number mean: 0.204992 max: 1.48569
smoothSolver:  Solving for Ux, Initial residual = 0.00252893, Final residual = 5.94539e-06, No Iterations 6
smoothSolver:  Solving for Uy, Initial residual = 0.00387707, Final residual = 9.33388e-06, No Iterations 6
DICPCG:  Solving for p, Initial residual = 0.00711755, Final residual = 0.000338578, No Iterations 46
time step continuity errors : sum local = 1.93105e-07, global = -1.21805e-19, cumulative = 1.44194e-18
DICPCG:  Solving for p, Initial residual = 0.00525225, Final residual = 8.95941e-07, No Iterations 145
time step continuity errors : sum local = 5.06953e-10, global = -2.73492e-19, cumulative = 1.16845e-18
ExecutionTime = 10.97 s  ClockTime = 11 s

Time = 0.104687

Courant Number mean: 0.206017 max: 1.48618
smoothSolver:  Solving for Ux, Initial residual = 0.0024886, Final residual = 5.85342e-06, No Iterations 6
smoothSolver:  Solving for Uy, Initial residual = 0.00382377, Final residual = 9.2038e-06, No Iterations 6
DICPCG:  Solving for p, Initial residual = 0.00705229, Final residual = 0.000322643, No Iterations 46
time step continuity errors : sum local = 1.86314e-07, global = 9.86315e-20, cumulative = 1.26708e-18
DICPCG:  Solving for p, Initial residual = 0.00536809, Final residual = 9.26425e-07, No Iterations 145
time step continuity errors : sum local = 5.24292e-10, global = 1.30777e-19, cumulative = 1.39786e-18
ExecutionTime = 11.11 s  ClockTime = 11 s

Time = 0.10625

Courant Number mean: 0.207033 max: 1.48665
smoothSolver:  Solving for Ux, Initial residual = 0.0024528, Final residual = 5.77381e-06, No Iterations 6
smoothSolver:  Solving for Uy, Initial residual = 0.0037672, Final residual = 9.06438e-06, No Iterations 6
DICPCG:  Solving for p, Initial residual = 0.00694474, Final residual = 0.000323337, No Iterations 46
time step continuity errors : sum local = 1.88137e-07, global = -2.02073e-19, cumulative = 1.19578e-18
DICPCG:  Solving for p, Initial residual = 0.00529001, Final residual = 8.61939e-07, No Iterations 145
time step continuity errors : sum local = 4.88449e-10, global = 1.51229e-19, cumulative = 1.34701e-18
ExecutionTime = 11.24 s  ClockTime = 11 s

Time = 0.107812

Courant Number mean: 0.208037 max: 1.4871
smoothSolver:  Solving for Ux, Initial residual = 0.00241446, Final residual = 5.68616e-06, No Iterations 6
smoothSolver:  Solving for Uy, Initial residual = 0.00371918, Final residual = 8.94875e-06, No Iterations 6
DICPCG:  Solving for p, Initial residual = 0.00688168, Final residual = 0.000342406, No Iterations 45
time step continuity errors : sum local = 2.02919e-07, global = 1.84323e-19, cumulative = 1.53134e-18
DICPCG:  Solving for p, Initial residual = 0.0052246, Final residual = 8.59588e-07, No Iterations 145
time step continuity errors : sum local = 4.87119e-10, global = 1.1027e-19, cumulative = 1.64161e-18
ExecutionTime = 11.37 s  ClockTime = 11 s

Time = 0.109375

Courant Number mean: 0.209029 max: 1.48754
smoothSolver:  Solving for Ux, Initial residual = 0.00238305, Final residual = 5.61836e-06, No Iterations 6
smoothSolver:  Solving for Uy, Initial residual = 0.00366203, Final residual = 8.80617e-06, No Iterations 6
DICPCG:  Solving for p, Initial residual = 0.00685737, Final residual = 0.000325912, No Iterations 46
time step continuity errors : sum local = 1.97923e-07, global = 3.71351e-19, cumulative = 2.01296e-18
DICPCG:  Solving for p, Initial residual = 0.00519246, Final residual = 8.55426e-07, No Iterations 145
time step continuity errors : sum local = 4.8535e-10, global = -1.98964e-19, cumulative = 1.81399e-18
ExecutionTime = 11.52 s  ClockTime = 12 s

Time = 0.110937

Courant Number mean: 0.210009 max: 1.48797
smoothSolver:  Solving for Ux, Initial residual = 0.00234442, Final residual = 5.52822e-06, No Iterations 6
smoothSolver:  Solving for Uy, Initial residual = 0.00362436, Final residual = 8.71707e-06, No Iterations 6
DICPCG:  Solving for p, Initial residual = 0.00678975, Final residual = 0.00033026, No Iterations 46
time step continuity errors : sum local = 2.08479e-07, global = 7.73398e-20, cumulative = 1.89133e-18
DICPCG:  Solving for p, Initial residual = 0.00516398, Final residual = 9.58863e-07, No Iterations 144
time step continuity errors : sum local = 5.4375e-10, global = 1.11575e-19, cumulative = 2.00291e-18
ExecutionTime = 11.66 s  ClockTime = 12 s

Time = 0.1125

Courant Number mean: 0.210979 max: 1.48839
smoothSolver:  Solving for Ux, Initial residual = 0.00232221, Final residual = 5.48284e-06, No Iterations 6
smoothSolver:  Solving for Uy, Initial residual = 0.00356039, Final residual = 8.55391e-06, No Iterations 6
DICPCG:  Solving for p, Initial residual = 0.00674011, Final residual = 0.000318486, No Iterations 63
time step continuity errors : sum local = 2.15885e-07, global = -2.29379e-19, cumulative = 1.77353e-18
DICPCG:  Solving for p, Initial residual = 0.0049863, Final residual = 8.40986e-07, No Iterations 145
time step continuity errors : sum local = 4.77731e-10, global = 4.2888e-20, cumulative = 1.81642e-18
ExecutionTime = 11.81 s  ClockTime = 12 s

Time = 0.114062

Courant Number mean: 0.211936 max: 1.4888
smoothSolver:  Solving for Ux, Initial residual = 0.00228484, Final residual = 5.3925e-06, No Iterations 6
smoothSolver:  Solving for Uy, Initial residual = 0.00352944, Final residual = 8.48022e-06, No Iterations 6
DICPCG:  Solving for p, Initial residual = 0.00678391, Final residual = 0.000322303, No Iterations 97
time step continuity errors : sum local = 1.84572e-07, global = -2.66296e-19, cumulative = 1.55012e-18
DICPCG:  Solving for p, Initial residual = 0.0050212, Final residual = 8.3082e-07, No Iterations 145
time step continuity errors : sum local = 4.7243e-10, global = -1.31672e-19, cumulative = 1.41845e-18
ExecutionTime = 11.97 s  ClockTime = 12 s

Time = 0.115625

Courant Number mean: 0.212881 max: 1.48919
smoothSolver:  Solving for Ux, Initial residual = 0.00225872, Final residual = 5.34127e-06, No Iterations 6
smoothSolver:  Solving for Uy, Initial residual = 0.00346989, Final residual = 8.339e-06, No Iterations 6
DICPCG:  Solving for p, Initial residual = 0.00645562, Final residual = 0.000320463, No Iterations 46
time step continuity errors : sum local = 1.88923e-07, global = 3.31187e-20, cumulative = 1.45157e-18
DICPCG:  Solving for p, Initial residual = 0.00483241, Final residual = 8.603e-07, No Iterations 145
time step continuity errors : sum local = 4.88789e-10, global = -5.93277e-20, cumulative = 1.39224e-18
ExecutionTime = 12.1 s  ClockTime = 12 s

Time = 0.117187

Courant Number mean: 0.213815 max: 1.48958
smoothSolver:  Solving for Ux, Initial residual = 0.00221993, Final residual = 5.24955e-06, No Iterations 6
smoothSolver:  Solving for Uy, Initial residual = 0.00343209, Final residual = 8.2481e-06, No Iterations 6
DICPCG:  Solving for p, Initial residual = 0.00649859, Final residual = 0.000299661, No Iterations 46
time step continuity errors : sum local = 1.8018e-07, global = -1.04861e-19, cumulative = 1.28738e-18
DICPCG:  Solving for p, Initial residual = 0.00495058, Final residual = 8.77512e-07, No Iterations 144
time step continuity errors : sum local = 4.98972e-10, global = -4.88806e-20, cumulative = 1.2385e-18
ExecutionTime = 12.24 s  ClockTime = 12 s

Time = 0.11875

Courant Number mean: 0.214738 max: 1.48995
smoothSolver:  Solving for Ux, Initial residual = 0.0021969, Final residual = 5.20105e-06, No Iterations 6
smoothSolver:  Solving for Uy, Initial residual = 0.00338151, Final residual = 8.12281e-06, No Iterations 6
DICPCG:  Solving for p, Initial residual = 0.0064037, Final residual = 0.000304438, No Iterations 46
time step continuity errors : sum local = 1.88426e-07, global = 3.04431e-19, cumulative = 1.54293e-18
DICPCG:  Solving for p, Initial residual = 0.00489001, Final residual = 7.96653e-07, No Iterations 144
time step continuity errors : sum local = 4.53418e-10, global = -3.47659e-19, cumulative = 1.19527e-18
ExecutionTime = 12.38 s  ClockTime = 12 s

Time = 0.120312

Courant Number mean: 0.21565 max: 1.49031
smoothSolver:  Solving for Ux, Initial residual = 0.00216318, Final residual = 5.12091e-06, No Iterations 6
smoothSolver:  Solving for Uy, Initial residual = 0.00335097, Final residual = 8.05151e-06, No Iterations 6
DICPCG:  Solving for p, Initial residual = 0.00638424, Final residual = 0.000307152, No Iterations 46
time step continuity errors : sum local = 1.98401e-07, global = 3.09905e-19, cumulative = 1.50517e-18
DICPCG:  Solving for p, Initial residual = 0.00485812, Final residual = 8.10305e-07, No Iterations 144
time step continuity errors : sum local = 4.61619e-10, global = -2.19858e-19, cumulative = 1.28532e-18
ExecutionTime = 12.51 s  ClockTime = 12 s

Time = 0.121875

Courant Number mean: 0.216557 max: 1.49066
smoothSolver:  Solving for Ux, Initial residual = 0.00214803, Final residual = 5.0913e-06, No Iterations 6
smoothSolver:  Solving for Uy, Initial residual = 0.00329188, Final residual = 7.90177e-06, No Iterations 6
DICPCG:  Solving for p, Initial residual = 0.00634649, Final residual = 0.000268444, No Iterations 97
time step continuity errors : sum local = 1.53365e-07, global = -2.446e-19, cumulative = 1.04072e-18
DICPCG:  Solving for p, Initial residual = 0.00470057, Final residual = 8.10845e-07, No Iterations 144
time step continuity errors : sum local = 4.63141e-10, global = -2.33959e-19, cumulative = 8.06758e-19
ExecutionTime = 12.66 s  ClockTime = 13 s

Time = 0.123437

Courant Number mean: 0.217456 max: 1.49101
smoothSolver:  Solving for Ux, Initial residual = 0.00211801, Final residual = 5.02433e-06, No Iterations 6
smoothSolver:  Solving for Uy, Initial residual = 0.00325235, Final residual = 7.813e-06, No Iterations 6
DICPCG:  Solving for p, Initial residual = 0.00608664, Final residual = 0.000282829, No Iterations 46
time step continuity errors : sum local = 1.64087e-07, global = -1.88836e-19, cumulative = 6.17922e-19
DICPCG:  Solving for p, Initial residual = 0.00455774, Final residual = 8.81307e-07, No Iterations 144
time step continuity errors : sum local = 5.02449e-10, global = -5.02287e-20, cumulative = 5.67693e-19
ExecutionTime = 12.8 s  ClockTime = 13 s

Time = 0.125

Courant Number mean: 0.218346 max: 1.49135
smoothSolver:  Solving for Ux, Initial residual = 0.00208587, Final residual = 4.9496e-06, No Iterations 6
smoothSolver:  Solving for Uy, Initial residual = 0.00321859, Final residual = 7.73188e-06, No Iterations 6
DICPCG:  Solving for p, Initial residual = 0.006124, Final residual = 0.000295278, No Iterations 45
time step continuity errors : sum local = 1.7222e-07, global = 9.958e-20, cumulative = 6.67273e-19
DICPCG:  Solving for p, Initial residual = 0.00466079, Final residual = 9.83907e-07, No Iterations 143
time step continuity errors : sum local = 5.61137e-10, global = 2.24998e-19, cumulative = 8.92271e-19
ExecutionTime = 13.14 s  ClockTime = 13 s

Time = 0.126562

Courant Number mean: 0.219228 max: 1.49168
smoothSolver:  Solving for Ux, Initial residual = 0.00206343, Final residual = 4.90026e-06, No Iterations 6
smoothSolver:  Solving for Uy, Initial residual = 0.00317686, Final residual = 7.62914e-06, No Iterations 6
DICPCG:  Solving for p, Initial residual = 0.00607764, Final residual = 0.000281936, No Iterations 45
time step continuity errors : sum local = 1.6636e-07, global = -5.88079e-21, cumulative = 8.8639e-19
DICPCG:  Solving for p, Initial residual = 0.0046522, Final residual = 9.12469e-07, No Iterations 143
time step continuity errors : sum local = 5.20707e-10, global = -3.46374e-19, cumulative = 5.40017e-19
ExecutionTime = 13.27 s  ClockTime = 13 s

Time = 0.128125

Courant Number mean: 0.220101 max: 1.492
smoothSolver:  Solving for Ux, Initial residual = 0.00203745, Final residual = 4.84011e-06, No Iterations 6
smoothSolver:  Solving for Uy, Initial residual = 0.00314193, Final residual = 7.54565e-06, No Iterations 6
DICPCG:  Solving for p, Initial residual = 0.00601179, Final residual = 0.000265064, No Iterations 45
time step continuity errors : sum local = 1.60194e-07, global = -8.11161e-20, cumulative = 4.58901e-19
DICPCG:  Solving for p, Initial residual = 0.00458071, Final residual = 9.35799e-07, No Iterations 143
time step continuity errors : sum local = 5.34327e-10, global = -9.40662e-20, cumulative = 3.64834e-19
ExecutionTime = 13.4 s  ClockTime = 13 s

Time = 0.129687

Courant Number mean: 0.220964 max: 1.49231
smoothSolver:  Solving for Ux, Initial residual = 0.00201865, Final residual = 4.79971e-06, No Iterations 6
smoothSolver:  Solving for Uy, Initial residual = 0.00309809, Final residual = 7.43686e-06, No Iterations 6
DICPCG:  Solving for p, Initial residual = 0.00594933, Final residual = 0.000296597, No Iterations 45
time step continuity errors : sum local = 1.83289e-07, global = -6.10498e-20, cumulative = 3.03785e-19
DICPCG:  Solving for p, Initial residual = 0.00455865, Final residual = 8.6904e-07, No Iterations 143
time step continuity errors : sum local = 4.96353e-10, global = -9.17711e-20, cumulative = 2.12014e-19
ExecutionTime = 13.53 s  ClockTime = 14 s

Time = 0.13125

Courant Number mean: 0.221818 max: 1.49262
smoothSolver:  Solving for Ux, Initial residual = 0.00199073, Final residual = 4.73305e-06, No Iterations 6
smoothSolver:  Solving for Uy, Initial residual = 0.00307343, Final residual = 7.37993e-06, No Iterations 6
DICPCG:  Solving for p, Initial residual = 0.00594878, Final residual = 0.000283237, No Iterations 45
time step continuity errors : sum local = 1.83511e-07, global = -1.98947e-19, cumulative = 1.30669e-20
DICPCG:  Solving for p, Initial residual = 0.00453051, Final residual = 8.21111e-07, No Iterations 143
time step continuity errors : sum local = 4.69483e-10, global = -1.55984e-19, cumulative = -1.42917e-19
ExecutionTime = 13.67 s  ClockTime = 14 s

Time = 0.132812

Courant Number mean: 0.222664 max: 1.49291
smoothSolver:  Solving for Ux, Initial residual = 0.00197965, Final residual = 4.71238e-06, No Iterations 6
smoothSolver:  Solving for Uy, Initial residual = 0.00302132, Final residual = 7.24877e-06, No Iterations 6
DICPCG:  Solving for p, Initial residual = 0.00590583, Final residual = 0.000293954, No Iterations 96
time step continuity errors : sum local = 1.68513e-07, global = 3.51826e-19, cumulative = 2.08909e-19
DICPCG:  Solving for p, Initial residual = 0.00439613, Final residual = 8.71414e-07, No Iterations 143
time step continuity errors : sum local = 4.9873e-10, global = 3.53773e-19, cumulative = 5.62682e-19
ExecutionTime = 13.83 s  ClockTime = 14 s

Time = 0.134375

Courant Number mean: 0.223499 max: 1.4932
smoothSolver:  Solving for Ux, Initial residual = 0.00195473, Final residual = 4.6568e-06, No Iterations 6
smoothSolver:  Solving for Uy, Initial residual = 0.00298697, Final residual = 7.17256e-06, No Iterations 6
DICPCG:  Solving for p, Initial residual = 0.00568084, Final residual = 0.000276514, No Iterations 45
time step continuity errors : sum local = 1.61157e-07, global = -1.13194e-19, cumulative = 4.49488e-19
DICPCG:  Solving for p, Initial residual = 0.00425373, Final residual = 8.73919e-07, No Iterations 143
time step continuity errors : sum local = 5.00053e-10, global = -2.35046e-19, cumulative = 2.14442e-19
ExecutionTime = 13.96 s  ClockTime = 14 s

Time = 0.135937

Courant Number mean: 0.224325 max: 1.49348
smoothSolver:  Solving for Ux, Initial residual = 0.0019282, Final residual = 4.59479e-06, No Iterations 6
smoothSolver:  Solving for Uy, Initial residual = 0.00295867, Final residual = 7.10526e-06, No Iterations 6
DICPCG:  Solving for p, Initial residual = 0.00571255, Final residual = 0.00025588, No Iterations 45
time step continuity errors : sum local = 1.50266e-07, global = -1.29008e-19, cumulative = 8.54339e-20
DICPCG:  Solving for p, Initial residual = 0.00436248, Final residual = 9.6879e-07, No Iterations 141
time step continuity errors : sum local = 5.54727e-10, global = 1.21712e-19, cumulative = 2.07146e-19
ExecutionTime = 14.1 s  ClockTime = 14 s

Time = 0.1375

Courant Number mean: 0.225145 max: 1.49375
smoothSolver:  Solving for Ux, Initial residual = 0.00191062, Final residual = 4.55614e-06, No Iterations 6
smoothSolver:  Solving for Uy, Initial residual = 0.00292185, Final residual = 7.01537e-06, No Iterations 6
DICPCG:  Solving for p, Initial residual = 0.00562632, Final residual = 0.000251291, No Iterations 45
time step continuity errors : sum local = 1.49891e-07, global = -1.12792e-19, cumulative = 9.43541e-20
DICPCG:  Solving for p, Initial residual = 0.004297, Final residual = 9.23253e-07, No Iterations 141
time step continuity errors : sum local = 5.29067e-10, global = -3.72982e-19, cumulative = -2.78628e-19
ExecutionTime = 14.23 s  ClockTime = 14 s

Time = 0.139062

Courant Number mean: 0.225959 max: 1.49401
smoothSolver:  Solving for Ux, Initial residual = 0.00188889, Final residual = 4.50526e-06, No Iterations 6
smoothSolver:  Solving for Uy, Initial residual = 0.00289255, Final residual = 6.94586e-06, No Iterations 6
DICPCG:  Solving for p, Initial residual = 0.00558045, Final residual = 0.000277436, No Iterations 44
time step continuity errors : sum local = 1.68355e-07, global = -2.10539e-19, cumulative = -4.89166e-19
DICPCG:  Solving for p, Initial residual = 0.00424671, Final residual = 8.84942e-07, No Iterations 141
time step continuity errors : sum local = 5.0708e-10, global = -4.07364e-20, cumulative = -5.29903e-19
ExecutionTime = 14.36 s  ClockTime = 14 s

Time = 0.140625

Courant Number mean: 0.226768 max: 1.49427
smoothSolver:  Solving for Ux, Initial residual = 0.00187434, Final residual = 4.47453e-06, No Iterations 6
smoothSolver:  Solving for Uy, Initial residual = 0.00285332, Final residual = 6.84839e-06, No Iterations 6
DICPCG:  Solving for p, Initial residual = 0.00555681, Final residual = 0.000270395, No Iterations 45
time step continuity errors : sum local = 1.69626e-07, global = -4.96245e-20, cumulative = -5.79527e-19
DICPCG:  Solving for p, Initial residual = 0.0042285, Final residual = 9.3922e-07, No Iterations 140
time step continuity errors : sum local = 5.38847e-10, global = 9.67075e-20, cumulative = -4.8282e-19
ExecutionTime = 14.48 s  ClockTime = 14 s

Time = 0.142187

Courant Number mean: 0.22757 max: 1.49452
smoothSolver:  Solving for Ux, Initial residual = 0.00185014, Final residual = 4.41674e-06, No Iterations 6
smoothSolver:  Solving for Uy, Initial residual = 0.00283382, Final residual = 6.80327e-06, No Iterations 6
DICPCG:  Solving for p, Initial residual = 0.00553289, Final residual = 0.000264938, No Iterations 45
time step continuity errors : sum local = 1.74179e-07, global = -3.5055e-20, cumulative = -5.17875e-19
DICPCG:  Solving for p, Initial residual = 0.00420455, Final residual = 9.05272e-07, No Iterations 140
time step continuity errors : sum local = 5.19884e-10, global = 4.83172e-20, cumulative = -4.69558e-19
ExecutionTime = 14.62 s  ClockTime = 15 s

Time = 0.14375

Courant Number mean: 0.228365 max: 1.49476
smoothSolver:  Solving for Ux, Initial residual = 0.00184317, Final residual = 4.40505e-06, No Iterations 6
smoothSolver:  Solving for Uy, Initial residual = 0.00278608, Final residual = 6.68319e-06, No Iterations 6
DICPCG:  Solving for p, Initial residual = 0.0054961, Final residual = 0.000261399, No Iterations 96
time step continuity errors : sum local = 1.50394e-07, global = 4.1754e-20, cumulative = -4.27804e-19
DICPCG:  Solving for p, Initial residual = 0.00409014, Final residual = 8.97465e-07, No Iterations 140
time step continuity errors : sum local = 5.15847e-10, global = -2.15037e-19, cumulative = -6.42841e-19
ExecutionTime = 14.78 s  ClockTime = 15 s

Time = 0.145312

Courant Number mean: 0.229152 max: 1.495
smoothSolver:  Solving for Ux, Initial residual = 0.00182126, Final residual = 4.35553e-06, No Iterations 6
smoothSolver:  Solving for Uy, Initial residual = 0.00275651, Final residual = 6.61881e-06, No Iterations 6
DICPCG:  Solving for p, Initial residual = 0.00528567, Final residual = 0.000244349, No Iterations 45
time step continuity errors : sum local = 1.43332e-07, global = -8.95988e-20, cumulative = -7.3244e-19
DICPCG:  Solving for p, Initial residual = 0.00395117, Final residual = 8.4701e-07, No Iterations 140
time step continuity errors : sum local = 4.86923e-10, global = -1.52005e-19, cumulative = -8.84445e-19
ExecutionTime = 14.91 s  ClockTime = 15 s

Time = 0.146875

Courant Number mean: 0.229933 max: 1.49523
smoothSolver:  Solving for Ux, Initial residual = 0.00179918, Final residual = 4.30373e-06, No Iterations 6
smoothSolver:  Solving for Uy, Initial residual = 0.00273226, Final residual = 6.5617e-06, No Iterations 6
DICPCG:  Solving for p, Initial residual = 0.00529541, Final residual = 0.000226474, No Iterations 45
time step continuity errors : sum local = 1.33609e-07, global = -7.3695e-21, cumulative = -8.91814e-19
DICPCG:  Solving for p, Initial residual = 0.00403705, Final residual = 9.74125e-07, No Iterations 139
time step continuity errors : sum local = 5.60229e-10, global = 3.24948e-19, cumulative = -5.66866e-19
ExecutionTime = 15.04 s  ClockTime = 15 s

Time = 0.148437

Courant Number mean: 0.230705 max: 1.49545
smoothSolver:  Solving for Ux, Initial residual = 0.00178481, Final residual = 4.27219e-06, No Iterations 6
smoothSolver:  Solving for Uy, Initial residual = 0.00269972, Final residual = 6.48273e-06, No Iterations 6
DICPCG:  Solving for p, Initial residual = 0.00521803, Final residual = 0.000225249, No Iterations 45
time step continuity errors : sum local = 1.35415e-07, global = 1.08956e-20, cumulative = -5.55971e-19
DICPCG:  Solving for p, Initial residual = 0.00398057, Final residual = 8.83052e-07, No Iterations 139
time step continuity errors : sum local = 5.08024e-10, global = -1.43319e-19, cumulative = -6.9929e-19
ExecutionTime = 15.17 s  ClockTime = 15 s

Time = 0.15

Courant Number mean: 0.231471 max: 1.49567
smoothSolver:  Solving for Ux, Initial residual = 0.0017663, Final residual = 4.22914e-06, No Iterations 6
smoothSolver:  Solving for Uy, Initial residual = 0.00267461, Final residual = 6.42376e-06, No Iterations 6
DICPCG:  Solving for p, Initial residual = 0.00517999, Final residual = 0.00024872, No Iterations 44
time step continuity errors : sum local = 1.51945e-07, global = 2.02149e-19, cumulative = -4.97141e-19
DICPCG:  Solving for p, Initial residual = 0.00393898, Final residual = 9.16649e-07, No Iterations 139
time step continuity errors : sum local = 5.27606e-10, global = 1.49387e-19, cumulative = -3.47754e-19
ExecutionTime = 15.3 s  ClockTime = 15 s

Time = 0.151562

Courant Number mean: 0.23223 max: 1.49588
smoothSolver:  Solving for Ux, Initial residual = 0.00175488, Final residual = 4.20539e-06, No Iterations 6
smoothSolver:  Solving for Uy, Initial residual = 0.00263934, Final residual = 6.33673e-06, No Iterations 6
DICPCG:  Solving for p, Initial residual = 0.00515407, Final residual = 0.000245589, No Iterations 45
time step continuity errors : sum local = 1.55722e-07, global = -1.19696e-19, cumulative = -4.6745e-19
DICPCG:  Solving for p, Initial residual = 0.00392234, Final residual = 8.5716e-07, No Iterations 139
time step continuity errors : sum local = 4.93388e-10, global = 2.93075e-19, cumulative = -1.74375e-19
ExecutionTime = 15.43 s  ClockTime = 15 s

Time = 0.153125

Courant Number mean: 0.232981 max: 1.4961
smoothSolver:  Solving for Ux, Initial residual = 0.00173375, Final residual = 4.15474e-06, No Iterations 6
smoothSolver:  Solving for Uy, Initial residual = 0.00262335, Final residual = 6.2998e-06, No Iterations 6
DICPCG:  Solving for p, Initial residual = 0.00514476, Final residual = 0.000239645, No Iterations 45
time step continuity errors : sum local = 1.59516e-07, global = 1.48647e-22, cumulative = -1.74226e-19
DICPCG:  Solving for p, Initial residual = 0.00390187, Final residual = 8.33365e-07, No Iterations 139
time step continuity errors : sum local = 4.80257e-10, global = -1.66028e-19, cumulative = -3.40255e-19
ExecutionTime = 15.56 s  ClockTime = 16 s

Time = 0.154687

Courant Number mean: 0.233727 max: 1.4963
smoothSolver:  Solving for Ux, Initial residual = 0.00172963, Final residual = 4.14856e-06, No Iterations 6
smoothSolver:  Solving for Uy, Initial residual = 0.00258002, Final residual = 6.19062e-06, No Iterations 6
DICPCG:  Solving for p, Initial residual = 0.00511293, Final residual = 0.000230586, No Iterations 96
time step continuity errors : sum local = 1.33116e-07, global = -1.70477e-20, cumulative = -3.57303e-19
DICPCG:  Solving for p, Initial residual = 0.00380987, Final residual = 8.07978e-07, No Iterations 139
time step continuity errors : sum local = 4.65933e-10, global = 2.14296e-19, cumulative = -1.43006e-19
ExecutionTime = 15.72 s  ClockTime = 16 s

Time = 0.15625

Courant Number mean: 0.234467 max: 1.4965
smoothSolver:  Solving for Ux, Initial residual = 0.00171043, Final residual = 4.10491e-06, No Iterations 6
smoothSolver:  Solving for Uy, Initial residual = 0.00255418, Final residual = 6.13469e-06, No Iterations 6
DICPCG:  Solving for p, Initial residual = 0.00491621, Final residual = 0.000222343, No Iterations 45
time step continuity errors : sum local = 1.31163e-07, global = 3.51794e-20, cumulative = -1.07827e-19
DICPCG:  Solving for p, Initial residual = 0.00367899, Final residual = 7.96889e-07, No Iterations 139
time step continuity errors : sum local = 4.59485e-10, global = 5.00368e-20, cumulative = -5.779e-20
ExecutionTime = 16.05 s  ClockTime = 16 s

Time = 0.157812

Courant Number mean: 0.235203 max: 1.4967
smoothSolver:  Solving for Ux, Initial residual = 0.00169176, Final residual = 4.06123e-06, No Iterations 6
smoothSolver:  Solving for Uy, Initial residual = 0.00253329, Final residual = 6.08578e-06, No Iterations 6
DICPCG:  Solving for p, Initial residual = 0.00491681, Final residual = 0.000242516, No Iterations 44
time step continuity errors : sum local = 1.43121e-07, global = -4.01465e-20, cumulative = -9.79365e-20
DICPCG:  Solving for p, Initial residual = 0.00374814, Final residual = 9.95412e-07, No Iterations 138
time step continuity errors : sum local = 5.73927e-10, global = -2.54397e-19, cumulative = -3.52334e-19
ExecutionTime = 16.19 s  ClockTime = 16 s

Time = 0.159375

Courant Number mean: 0.235934 max: 1.49688
smoothSolver:  Solving for Ux, Initial residual = 0.00167968, Final residual = 4.03504e-06, No Iterations 6
smoothSolver:  Solving for Uy, Initial residual = 0.00250436, Final residual = 6.01595e-06, No Iterations 6
DICPCG:  Solving for p, Initial residual = 0.00487338, Final residual = 0.000238056, No Iterations 44
time step continuity errors : sum local = 1.43137e-07, global = 4.51686e-20, cumulative = -3.07165e-19
DICPCG:  Solving for p, Initial residual = 0.00373954, Final residual = 7.92947e-07, No Iterations 139
time step continuity errors : sum local = 4.5748e-10, global = 8.79485e-20, cumulative = -2.19217e-19
ExecutionTime = 16.31 s  ClockTime = 16 s

Time = 0.160937

Courant Number mean: 0.236659 max: 1.49707
smoothSolver:  Solving for Ux, Initial residual = 0.00166367, Final residual = 3.99799e-06, No Iterations 6
smoothSolver:  Solving for Uy, Initial residual = 0.00248257, Final residual = 5.96505e-06, No Iterations 6
DICPCG:  Solving for p, Initial residual = 0.00483119, Final residual = 0.00022185, No Iterations 44
time step continuity errors : sum local = 1.36386e-07, global = 5.6023e-20, cumulative = -1.63194e-19
DICPCG:  Solving for p, Initial residual = 0.00368561, Final residual = 7.92535e-07, No Iterations 139
time step continuity errors : sum local = 4.57609e-10, global = -1.26038e-19, cumulative = -2.89232e-19
ExecutionTime = 16.44 s  ClockTime = 16 s

Time = 0.1625

Courant Number mean: 0.237379 max: 1.49725
smoothSolver:  Solving for Ux, Initial residual = 0.00165468, Final residual = 3.97945e-06, No Iterations 6
smoothSolver:  Solving for Uy, Initial residual = 0.00245055, Final residual = 5.88663e-06, No Iterations 6
DICPCG:  Solving for p, Initial residual = 0.00477674, Final residual = 0.000230803, No Iterations 45
time step continuity errors : sum local = 1.4735e-07, global = 1.14107e-19, cumulative = -1.75125e-19
DICPCG:  Solving for p, Initial residual = 0.00363997, Final residual = 9.94598e-07, No Iterations 138
time step continuity errors : sum local = 5.74284e-10, global = -3.57142e-19, cumulative = -5.32267e-19
ExecutionTime = 16.58 s  ClockTime = 17 s

Time = 0.164062

Courant Number mean: 0.238093 max: 1.49742
smoothSolver:  Solving for Ux, Initial residual = 0.00163611, Final residual = 3.93422e-06, No Iterations 6
smoothSolver:  Solving for Uy, Initial residual = 0.00243736, Final residual = 5.85655e-06, No Iterations 6
DICPCG:  Solving for p, Initial residual = 0.00479147, Final residual = 0.000229537, No Iterations 45
time step continuity errors : sum local = 1.53272e-07, global = -1.70675e-19, cumulative = -7.02942e-19
DICPCG:  Solving for p, Initial residual = 0.00363642, Final residual = 7.91233e-07, No Iterations 139
time step continuity errors : sum local = 4.57272e-10, global = 8.56102e-20, cumulative = -6.17332e-19
ExecutionTime = 16.71 s  ClockTime = 17 s

Time = 0.165625

Courant Number mean: 0.238801 max: 1.49759
smoothSolver:  Solving for Ux, Initial residual = 0.00163383, Final residual = 3.93174e-06, No Iterations 6
smoothSolver:  Solving for Uy, Initial residual = 0.00239785, Final residual = 5.75732e-06, No Iterations 6
DICPCG:  Solving for p, Initial residual = 0.00475777, Final residual = 0.000204913, No Iterations 96
time step continuity errors : sum local = 1.18634e-07, global = 9.61218e-20, cumulative = -5.2121e-19
DICPCG:  Solving for p, Initial residual = 0.00355144, Final residual = 9.69509e-07, No Iterations 138
time step continuity errors : sum local = 5.60247e-10, global = -1.8983e-19, cumulative = -7.1104e-19
ExecutionTime = 16.87 s  ClockTime = 17 s

Time = 0.167187

Courant Number mean: 0.239503 max: 1.49775
smoothSolver:  Solving for Ux, Initial residual = 0.00161664, Final residual = 3.89261e-06, No Iterations 6
smoothSolver:  Solving for Uy, Initial residual = 0.00237526, Final residual = 5.70848e-06, No Iterations 6
DICPCG:  Solving for p, Initial residual = 0.00457621, Final residual = 0.000203049, No Iterations 45
time step continuity errors : sum local = 1.20409e-07, global = 5.80682e-20, cumulative = -6.52972e-19
DICPCG:  Solving for p, Initial residual = 0.00342747, Final residual = 7.7738e-07, No Iterations 139
time step continuity errors : sum local = 4.49445e-10, global = -2.03886e-19, cumulative = -8.56858e-19
ExecutionTime = 17 s  ClockTime = 17 s

Time = 0.16875

Courant Number mean: 0.2402 max: 1.49791
smoothSolver:  Solving for Ux, Initial residual = 0.00160072, Final residual = 3.85563e-06, No Iterations 6
smoothSolver:  Solving for Uy, Initial residual = 0.00235712, Final residual = 5.66579e-06, No Iterations 6
DICPCG:  Solving for p, Initial residual = 0.0045754, Final residual = 0.0002233, No Iterations 44
time step continuity errors : sum local = 1.3207e-07, global = 2.94431e-19, cumulative = -5.62427e-19
DICPCG:  Solving for p, Initial residual = 0.00348148, Final residual = 9.84563e-07, No Iterations 138
time step continuity errors : sum local = 5.69076e-10, global = -1.37983e-19, cumulative = -7.00409e-19
ExecutionTime = 17.15 s  ClockTime = 17 s

Time = 0.170312

Courant Number mean: 0.240891 max: 1.49806
smoothSolver:  Solving for Ux, Initial residual = 0.00159049, Final residual = 3.83357e-06, No Iterations 6
smoothSolver:  Solving for Uy, Initial residual = 0.00233117, Final residual = 5.60348e-06, No Iterations 6
DICPCG:  Solving for p, Initial residual = 0.00452994, Final residual = 0.000221913, No Iterations 44
time step continuity errors : sum local = 1.34141e-07, global = 2.48733e-19, cumulative = -4.51677e-19
DICPCG:  Solving for p, Initial residual = 0.00347199, Final residual = 9.79511e-07, No Iterations 138
[...]
DICPCG:  Solving for p, Initial residual = 0.00105813, Final residual = 8.64776e-07, No Iterations 133
time step continuity errors : sum local = 5.18912e-10, global = -8.90022e-20, cumulative = 1.17225e-18
ExecutionTime = 43.07 s  ClockTime = 43 s

Time = 0.459375

Courant Number mean: 0.322246 max: 1.50388
smoothSolver:  Solving for Ux, Initial residual = 0.00065327, Final residual = 4.37551e-06, No Iterations 5
smoothSolver:  Solving for Uy, Initial residual = 0.000733225, Final residual = 4.87667e-06, No Iterations 5
DICPCG:  Solving for p, Initial residual = 0.00139036, Final residual = 6.01195e-05, No Iterations 39
time step continuity errors : sum local = 3.87371e-08, global = -1.20889e-19, cumulative = 1.05136e-18
DICPCG:  Solving for p, Initial residual = 0.00103134, Final residual = 7.92488e-07, No Iterations 133
time step continuity errors : sum local = 4.75149e-10, global = 2.15001e-19, cumulative = 1.26636e-18
ExecutionTime = 43.19 s  ClockTime = 43 s

Time = 0.460938

Courant Number mean: 0.32254 max: 1.50389
smoothSolver:  Solving for Ux, Initial residual = 0.000649751, Final residual = 4.35098e-06, No Iterations 5
smoothSolver:  Solving for Uy, Initial residual = 0.000730547, Final residual = 4.85853e-06, No Iterations 5
DICPCG:  Solving for p, Initial residual = 0.00138972, Final residual = 6.47974e-05, No Iterations 29
time step continuity errors : sum local = 4.05075e-08, global = -1.55426e-19, cumulative = 1.11093e-18
DICPCG:  Solving for p, Initial residual = 0.00103744, Final residual = 8.61829e-07, No Iterations 132
time step continuity errors : sum local = 5.17246e-10, global = -3.25006e-20, cumulative = 1.07843e-18
ExecutionTime = 43.32 s  ClockTime = 43 s

Time = 0.4625

Courant Number mean: 0.322834 max: 1.5039
smoothSolver:  Solving for Ux, Initial residual = 0.000646977, Final residual = 4.33313e-06, No Iterations 5
smoothSolver:  Solving for Uy, Initial residual = 0.000726767, Final residual = 4.83346e-06, No Iterations 5
DICPCG:  Solving for p, Initial residual = 0.00139109, Final residual = 6.56227e-05, No Iterations 44
time step continuity errors : sum local = 4.44319e-08, global = -2.08855e-19, cumulative = 8.69575e-19
DICPCG:  Solving for p, Initial residual = 0.00103994, Final residual = 8.13572e-07, No Iterations 115
time step continuity errors : sum local = 4.88375e-10, global = 3.23226e-20, cumulative = 9.01898e-19
ExecutionTime = 43.45 s  ClockTime = 44 s

Time = 0.464063

Courant Number mean: 0.323127 max: 1.50391
smoothSolver:  Solving for Ux, Initial residual = 0.000643579, Final residual = 4.30903e-06, No Iterations 5
smoothSolver:  Solving for Uy, Initial residual = 0.000724001, Final residual = 4.81446e-06, No Iterations 5
DICPCG:  Solving for p, Initial residual = 0.00140415, Final residual = 6.19746e-05, No Iterations 30
time step continuity errors : sum local = 4.19989e-08, global = 4.44982e-19, cumulative = 1.34688e-18
DICPCG:  Solving for p, Initial residual = 0.00104073, Final residual = 9.27713e-07, No Iterations 132
time step continuity errors : sum local = 5.56259e-10, global = -2.71451e-19, cumulative = 1.07543e-18
ExecutionTime = 43.57 s  ClockTime = 44 s

Time = 0.465625

Courant Number mean: 0.323418 max: 1.50392
smoothSolver:  Solving for Ux, Initial residual = 0.000641801, Final residual = 4.29789e-06, No Iterations 5
smoothSolver:  Solving for Uy, Initial residual = 0.000719234, Final residual = 4.78252e-06, No Iterations 5
DICPCG:  Solving for p, Initial residual = 0.00138795, Final residual = 6.12052e-05, No Iterations 94
time step continuity errors : sum local = 3.68256e-08, global = -2.22487e-21, cumulative = 1.0732e-18
DICPCG:  Solving for p, Initial residual = 0.00103384, Final residual = 8.6764e-07, No Iterations 133
time step continuity errors : sum local = 5.20891e-10, global = -1.09723e-20, cumulative = 1.06223e-18
ExecutionTime = 43.72 s  ClockTime = 44 s

Time = 0.467188

Courant Number mean: 0.323709 max: 1.50392
smoothSolver:  Solving for Ux, Initial residual = 0.000638134, Final residual = 4.27382e-06, No Iterations 5
smoothSolver:  Solving for Uy, Initial residual = 0.000715897, Final residual = 4.76169e-06, No Iterations 5
DICPCG:  Solving for p, Initial residual = 0.00135624, Final residual = 6.40549e-05, No Iterations 38
time step continuity errors : sum local = 4.09826e-08, global = -2.75013e-20, cumulative = 1.03473e-18
DICPCG:  Solving for p, Initial residual = 0.0010071, Final residual = 9.61408e-07, No Iterations 132
time step continuity errors : sum local = 5.7687e-10, global = -4.73437e-19, cumulative = 5.61293e-19
ExecutionTime = 43.86 s  ClockTime = 44 s

Time = 0.46875

Courant Number mean: 0.323999 max: 1.50393
smoothSolver:  Solving for Ux, Initial residual = 0.000634591, Final residual = 4.24908e-06, No Iterations 5
smoothSolver:  Solving for Uy, Initial residual = 0.00071339, Final residual = 4.74458e-06, No Iterations 5
DICPCG:  Solving for p, Initial residual = 0.00135689, Final residual = 6.2989e-05, No Iterations 29
time step continuity errors : sum local = 3.94035e-08, global = 6.27607e-20, cumulative = 6.24054e-19
DICPCG:  Solving for p, Initial residual = 0.00101242, Final residual = 8.597e-07, No Iterations 132
time step continuity errors : sum local = 5.1636e-10, global = -1.97029e-19, cumulative = 4.27025e-19
ExecutionTime = 44.18 s  ClockTime = 44 s

Time = 0.470313

Courant Number mean: 0.324288 max: 1.50394
smoothSolver:  Solving for Ux, Initial residual = 0.000631986, Final residual = 4.23242e-06, No Iterations 5
smoothSolver:  Solving for Uy, Initial residual = 0.000709572, Final residual = 4.71924e-06, No Iterations 5
DICPCG:  Solving for p, Initial residual = 0.00135642, Final residual = 6.39807e-05, No Iterations 44
time step continuity errors : sum local = 4.34698e-08, global = -2.81065e-19, cumulative = 1.4596e-19
DICPCG:  Solving for p, Initial residual = 0.00101457, Final residual = 9.5357e-07, No Iterations 132
time step continuity errors : sum local = 5.72261e-10, global = 3.64733e-19, cumulative = 5.10693e-19
ExecutionTime = 44.3 s  ClockTime = 44 s

Time = 0.471875

Courant Number mean: 0.324575 max: 1.50395
smoothSolver:  Solving for Ux, Initial residual = 0.000628605, Final residual = 4.20839e-06, No Iterations 5
smoothSolver:  Solving for Uy, Initial residual = 0.000706904, Final residual = 4.70087e-06, No Iterations 5
DICPCG:  Solving for p, Initial residual = 0.00137167, Final residual = 6.27335e-05, No Iterations 30
time step continuity errors : sum local = 4.24698e-08, global = -1.5189e-19, cumulative = 3.58803e-19
DICPCG:  Solving for p, Initial residual = 0.00101706, Final residual = 9.65037e-07, No Iterations 132
time step continuity errors : sum local = 5.79122e-10, global = 1.11735e-19, cumulative = 4.70538e-19
ExecutionTime = 44.42 s  ClockTime = 45 s

Time = 0.473438

Courant Number mean: 0.324862 max: 1.50395
smoothSolver:  Solving for Ux, Initial residual = 0.000626874, Final residual = 4.1976e-06, No Iterations 5
smoothSolver:  Solving for Uy, Initial residual = 0.000702254, Final residual = 4.66975e-06, No Iterations 5
DICPCG:  Solving for p, Initial residual = 0.00135548, Final residual = 6.15393e-05, No Iterations 94
time step continuity errors : sum local = 3.70407e-08, global = 2.096e-20, cumulative = 4.91498e-19
DICPCG:  Solving for p, Initial residual = 0.00100971, Final residual = 8.67852e-07, No Iterations 133
time step continuity errors : sum local = 5.21229e-10, global = 1.11905e-19, cumulative = 6.03403e-19
ExecutionTime = 44.58 s  ClockTime = 45 s

Time = 0.475

Courant Number mean: 0.325148 max: 1.50396
smoothSolver:  Solving for Ux, Initial residual = 0.000623267, Final residual = 4.17389e-06, No Iterations 5
smoothSolver:  Solving for Uy, Initial residual = 0.000698993, Final residual = 4.6494e-06, No Iterations 5
DICPCG:  Solving for p, Initial residual = 0.00132327, Final residual = 6.01093e-05, No Iterations 38
time step continuity errors : sum local = 3.85556e-08, global = 1.42575e-19, cumulative = 7.45977e-19
DICPCG:  Solving for p, Initial residual = 0.000982582, Final residual = 8.80948e-07, No Iterations 120
time step continuity errors : sum local = 5.2929e-10, global = 2.53183e-19, cumulative = 9.9916e-19
ExecutionTime = 44.69 s  ClockTime = 45 s

Time = 0.476563

Courant Number mean: 0.325432 max: 1.50397
smoothSolver:  Solving for Ux, Initial residual = 0.000619746, Final residual = 4.14929e-06, No Iterations 5
smoothSolver:  Solving for Uy, Initial residual = 0.000696564, Final residual = 4.63279e-06, No Iterations 5
DICPCG:  Solving for p, Initial residual = 0.00132451, Final residual = 6.28297e-05, No Iterations 29
time step continuity errors : sum local = 3.9232e-08, global = -6.85641e-20, cumulative = 9.30596e-19
DICPCG:  Solving for p, Initial residual = 0.000988015, Final residual = 8.16721e-07, No Iterations 132
time step continuity errors : sum local = 4.91007e-10, global = 3.44123e-19, cumulative = 1.27472e-18
ExecutionTime = 44.8 s  ClockTime = 45 s

Time = 0.478125

Courant Number mean: 0.325715 max: 1.50398
smoothSolver:  Solving for Ux, Initial residual = 0.000617219, Final residual = 4.13315e-06, No Iterations 5
smoothSolver:  Solving for Uy, Initial residual = 0.000692855, Final residual = 4.60825e-06, No Iterations 5
DICPCG:  Solving for p, Initial residual = 0.00132253, Final residual = 6.1298e-05, No Iterations 44
time step continuity errors : sum local = 4.17073e-08, global = -4.3162e-20, cumulative = 1.23156e-18
DICPCG:  Solving for p, Initial residual = 0.000989127, Final residual = 9.62527e-07, No Iterations 132
time step continuity errors : sum local = 5.78054e-10, global = 1.64066e-19, cumulative = 1.39562e-18
ExecutionTime = 44.93 s  ClockTime = 45 s

Time = 0.479688

Courant Number mean: 0.325998 max: 1.50398
smoothSolver:  Solving for Ux, Initial residual = 0.000613912, Final residual = 4.10965e-06, No Iterations 5
smoothSolver:  Solving for Uy, Initial residual = 0.000690201, Final residual = 4.58999e-06, No Iterations 5
DICPCG:  Solving for p, Initial residual = 0.00133853, Final residual = 6.32956e-05, No Iterations 30
time step continuity errors : sum local = 4.2575e-08, global = 7.72574e-20, cumulative = 1.47288e-18
DICPCG:  Solving for p, Initial residual = 0.000993054, Final residual = 9.51022e-07, No Iterations 132
time step continuity errors : sum local = 5.71146e-10, global = -3.66019e-19, cumulative = 1.10686e-18
ExecutionTime = 45.05 s  ClockTime = 45 s

Time = 0.48125

Courant Number mean: 0.326279 max: 1.50399
smoothSolver:  Solving for Ux, Initial residual = 0.000612154, Final residual = 4.09876e-06, No Iterations 5
smoothSolver:  Solving for Uy, Initial residual = 0.000685766, Final residual = 4.56041e-06, No Iterations 5
DICPCG:  Solving for p, Initial residual = 0.00132246, Final residual = 6.19321e-05, No Iterations 94
time step continuity errors : sum local = 3.72891e-08, global = 3.16013e-20, cumulative = 1.13846e-18
DICPCG:  Solving for p, Initial residual = 0.000985346, Final residual = 9.71961e-07, No Iterations 132
time step continuity errors : sum local = 5.8396e-10, global = -1.45748e-19, cumulative = 9.92716e-19
ExecutionTime = 45.2 s  ClockTime = 45 s

Time = 0.482813

Courant Number mean: 0.326559 max: 1.504
smoothSolver:  Solving for Ux, Initial residual = 0.000608676, Final residual = 4.07596e-06, No Iterations 5
smoothSolver:  Solving for Uy, Initial residual = 0.00068252, Final residual = 4.54015e-06, No Iterations 5
DICPCG:  Solving for p, Initial residual = 0.00129105, Final residual = 5.64158e-05, No Iterations 38
time step continuity errors : sum local = 3.62744e-08, global = -1.32884e-19, cumulative = 8.59832e-19
DICPCG:  Solving for p, Initial residual = 0.00095865, Final residual = 8.06167e-07, No Iterations 119
time step continuity errors : sum local = 4.84999e-10, global = 2.91112e-19, cumulative = 1.15094e-18
ExecutionTime = 45.31 s  ClockTime = 45 s

Time = 0.484375

Courant Number mean: 0.326838 max: 1.50401
smoothSolver:  Solving for Ux, Initial residual = 0.000605182, Final residual = 4.05168e-06, No Iterations 5
smoothSolver:  Solving for Uy, Initial residual = 0.000680182, Final residual = 4.52413e-06, No Iterations 5
DICPCG:  Solving for p, Initial residual = 0.00129332, Final residual = 6.27752e-05, No Iterations 29
time step continuity errors : sum local = 3.91034e-08, global = -2.4969e-19, cumulative = 9.01253e-19
DICPCG:  Solving for p, Initial residual = 0.000964225, Final residual = 9.71218e-07, No Iterations 122
time step continuity errors : sum local = 5.89236e-10, global = 9.00279e-20, cumulative = 9.91281e-19
ExecutionTime = 45.43 s  ClockTime = 46 s

Time = 0.485938

Courant Number mean: 0.327116 max: 1.50401
smoothSolver:  Solving for Ux, Initial residual = 0.00060272, Final residual = 4.03603e-06, No Iterations 5
smoothSolver:  Solving for Uy, Initial residual = 0.000676559, Final residual = 4.50022e-06, No Iterations 5
DICPCG:  Solving for p, Initial residual = 0.00128907, Final residual = 6.38764e-05, No Iterations 41
time step continuity errors : sum local = 4.29625e-08, global = -5.48169e-20, cumulative = 9.36464e-19
DICPCG:  Solving for p, Initial residual = 0.000961966, Final residual = 9.62327e-07, No Iterations 132
time step continuity errors : sum local = 5.78287e-10, global = 3.87908e-19, cumulative = 1.32437e-18
ExecutionTime = 45.54 s  ClockTime = 46 s

Time = 0.4875

Courant Number mean: 0.327393 max: 1.50402
smoothSolver:  Solving for Ux, Initial residual = 0.00059945, Final residual = 4.01265e-06, No Iterations 5
smoothSolver:  Solving for Uy, Initial residual = 0.000673949, Final residual = 4.48225e-06, No Iterations 5
DICPCG:  Solving for p, Initial residual = 0.0013028, Final residual = 6.08945e-05, No Iterations 40
time step continuity errors : sum local = 4.03934e-08, global = -1.76296e-19, cumulative = 1.14808e-18
DICPCG:  Solving for p, Initial residual = 0.000966564, Final residual = 8.82909e-07, No Iterations 132
time step continuity errors : sum local = 5.31261e-10, global = -3.92218e-20, cumulative = 1.10885e-18
ExecutionTime = 45.66 s  ClockTime = 46 s

Time = 0.489063

Courant Number mean: 0.327669 max: 1.50403
smoothSolver:  Solving for Ux, Initial residual = 0.000598409, Final residual = 4.00653e-06, No Iterations 5
smoothSolver:  Solving for Uy, Initial residual = 0.000668562, Final residual = 4.44633e-06, No Iterations 5
DICPCG:  Solving for p, Initial residual = 0.00128107, Final residual = 5.54965e-05, No Iterations 94
time step continuity errors : sum local = 3.3434e-08, global = -4.87226e-19, cumulative = 6.21628e-19
DICPCG:  Solving for p, Initial residual = 0.000953504, Final residual = 8.39833e-07, No Iterations 132
time step continuity errors : sum local = 5.04648e-10, global = -8.72642e-20, cumulative = 5.34363e-19
ExecutionTime = 45.82 s  ClockTime = 46 s

Time = 0.490625

Courant Number mean: 0.327945 max: 1.50404
smoothSolver:  Solving for Ux, Initial residual = 0.000594294, Final residual = 3.97941e-06, No Iterations 5
smoothSolver:  Solving for Uy, Initial residual = 0.000666468, Final residual = 4.43354e-06, No Iterations 5
DICPCG:  Solving for p, Initial residual = 0.00126304, Final residual = 5.62934e-05, No Iterations 39
time step continuity errors : sum local = 3.64514e-08, global = 4.95905e-20, cumulative = 5.83954e-19
DICPCG:  Solving for p, Initial residual = 0.000937596, Final residual = 9.57597e-07, No Iterations 132
time step continuity errors : sum local = 5.75801e-10, global = -9.32956e-20, cumulative = 4.90658e-19
ExecutionTime = 45.93 s  ClockTime = 46 s

Time = 0.492188

Courant Number mean: 0.328219 max: 1.50404
smoothSolver:  Solving for Ux, Initial residual = 0.000591134, Final residual = 3.95739e-06, No Iterations 5
smoothSolver:  Solving for Uy, Initial residual = 0.00066405, Final residual = 4.41708e-06, No Iterations 5
DICPCG:  Solving for p, Initial residual = 0.001261, Final residual = 5.96305e-05, No Iterations 29
time step continuity errors : sum local = 3.7373e-08, global = -9.0199e-20, cumulative = 4.00459e-19
DICPCG:  Solving for p, Initial residual = 0.000941137, Final residual = 7.94624e-07, No Iterations 119
time step continuity errors : sum local = 4.78186e-10, global = 6.62158e-20, cumulative = 4.66675e-19
ExecutionTime = 46.04 s  ClockTime = 46 s

Time = 0.49375

Courant Number mean: 0.328492 max: 1.50405
smoothSolver:  Solving for Ux, Initial residual = 0.000588424, Final residual = 3.9399e-06, No Iterations 5
smoothSolver:  Solving for Uy, Initial residual = 0.000660705, Final residual = 4.39479e-06, No Iterations 5
DICPCG:  Solving for p, Initial residual = 0.00126147, Final residual = 5.9552e-05, No Iterations 44
time step continuity errors : sum local = 4.07114e-08, global = 1.71083e-19, cumulative = 6.37758e-19
DICPCG:  Solving for p, Initial residual = 0.000943782, Final residual = 9.44843e-07, No Iterations 132
time step continuity errors : sum local = 5.68192e-10, global = 2.66783e-19, cumulative = 9.04541e-19
ExecutionTime = 46.17 s  ClockTime = 46 s

Time = 0.495313

Courant Number mean: 0.328764 max: 1.50406
smoothSolver:  Solving for Ux, Initial residual = 0.000585396, Final residual = 3.91838e-06, No Iterations 5
smoothSolver:  Solving for Uy, Initial residual = 0.000658172, Final residual = 4.37749e-06, No Iterations 5
DICPCG:  Solving for p, Initial residual = 0.00127614, Final residual = 5.68048e-05, No Iterations 30
time step continuity errors : sum local = 3.87595e-08, global = 2.57502e-19, cumulative = 1.16204e-18
DICPCG:  Solving for p, Initial residual = 0.000945624, Final residual = 8.78768e-07, No Iterations 132
time step continuity errors : sum local = 5.28441e-10, global = -9.0748e-20, cumulative = 1.07129e-18
ExecutionTime = 46.29 s  ClockTime = 46 s

Time = 0.496875

Courant Number mean: 0.329035 max: 1.50406
smoothSolver:  Solving for Ux, Initial residual = 0.000583708, Final residual = 3.90786e-06, No Iterations 5
smoothSolver:  Solving for Uy, Initial residual = 0.000653855, Final residual = 4.34848e-06, No Iterations 5
DICPCG:  Solving for p, Initial residual = 0.00126024, Final residual = 5.64589e-05, No Iterations 94
time step continuity errors : sum local = 3.40318e-08, global = 3.30905e-20, cumulative = 1.10439e-18
DICPCG:  Solving for p, Initial residual = 0.00093942, Final residual = 9.97594e-07, No Iterations 132
time step continuity errors : sum local = 5.99906e-10, global = 4.6483e-19, cumulative = 1.56922e-18
ExecutionTime = 46.44 s  ClockTime = 47 s

Time = 0.498438

Courant Number mean: 0.329305 max: 1.50407
smoothSolver:  Solving for Ux, Initial residual = 0.000580321, Final residual = 3.88555e-06, No Iterations 5
smoothSolver:  Solving for Uy, Initial residual = 0.000650799, Final residual = 4.32945e-06, No Iterations 5
DICPCG:  Solving for p, Initial residual = 0.00123221, Final residual = 5.9742e-05, No Iterations 38
time step continuity errors : sum local = 3.83874e-08, global = -1.23434e-19, cumulative = 1.44578e-18
DICPCG:  Solving for p, Initial residual = 0.0009154, Final residual = 9.38131e-07, No Iterations 132
time step continuity errors : sum local = 5.64508e-10, global = 3.53995e-21, cumulative = 1.44932e-18
ExecutionTime = 46.56 s  ClockTime = 47 s

Time = 0.5

Courant Number mean: 0.329573 max: 1.50408
smoothSolver:  Solving for Ux, Initial residual = 0.000577116, Final residual = 3.86318e-06, No Iterations 5
smoothSolver:  Solving for Uy, Initial residual = 0.000648538, Final residual = 4.31399e-06, No Iterations 5
DICPCG:  Solving for p, Initial residual = 0.00123238, Final residual = 5.66116e-05, No Iterations 29
time step continuity errors : sum local = 3.55553e-08, global = 1.56801e-20, cumulative = 1.465e-18
DICPCG:  Solving for p, Initial residual = 0.000918635, Final residual = 9.10512e-07, No Iterations 120
time step continuity errors : sum local = 5.4975e-10, global = -2.9417e-19, cumulative = 1.17083e-18
ExecutionTime = 46.87 s  ClockTime = 47 s

End

